* NGSPICE file created from cntr_example.ext - technology: gf180mcuC

* Black-box entry subcircuit for gf180mcu_fd_sc_mcu7t5v0__fill_2 abstract view
.subckt gf180mcu_fd_sc_mcu7t5v0__fill_2 VDD VSS
.ends

* Black-box entry subcircuit for gf180mcu_fd_sc_mcu7t5v0__filltie abstract view
.subckt gf180mcu_fd_sc_mcu7t5v0__filltie VDD VSS
.ends

* Black-box entry subcircuit for gf180mcu_fd_sc_mcu7t5v0__fillcap_64 abstract view
.subckt gf180mcu_fd_sc_mcu7t5v0__fillcap_64 VDD VSS
.ends

* Black-box entry subcircuit for gf180mcu_fd_sc_mcu7t5v0__fillcap_4 abstract view
.subckt gf180mcu_fd_sc_mcu7t5v0__fillcap_4 VDD VSS
.ends

* Black-box entry subcircuit for gf180mcu_fd_sc_mcu7t5v0__clkinv_1 abstract view
.subckt gf180mcu_fd_sc_mcu7t5v0__clkinv_1 I ZN VDD VSS
.ends

* Black-box entry subcircuit for gf180mcu_fd_sc_mcu7t5v0__antenna abstract view
.subckt gf180mcu_fd_sc_mcu7t5v0__antenna I VDD VSS
.ends

* Black-box entry subcircuit for gf180mcu_fd_sc_mcu7t5v0__inv_1 abstract view
.subckt gf180mcu_fd_sc_mcu7t5v0__inv_1 I ZN VDD VSS
.ends

* Black-box entry subcircuit for gf180mcu_fd_sc_mcu7t5v0__fillcap_32 abstract view
.subckt gf180mcu_fd_sc_mcu7t5v0__fillcap_32 VDD VSS
.ends

* Black-box entry subcircuit for gf180mcu_fd_sc_mcu7t5v0__nor2_1 abstract view
.subckt gf180mcu_fd_sc_mcu7t5v0__nor2_1 A1 A2 ZN VDD VSS
.ends

* Black-box entry subcircuit for gf180mcu_fd_sc_mcu7t5v0__fill_1 abstract view
.subckt gf180mcu_fd_sc_mcu7t5v0__fill_1 VDD VSS
.ends

* Black-box entry subcircuit for gf180mcu_fd_sc_mcu7t5v0__oai22_1 abstract view
.subckt gf180mcu_fd_sc_mcu7t5v0__oai22_1 A1 A2 B1 B2 ZN VDD VSS
.ends

* Black-box entry subcircuit for gf180mcu_fd_sc_mcu7t5v0__fillcap_8 abstract view
.subckt gf180mcu_fd_sc_mcu7t5v0__fillcap_8 VDD VSS
.ends

* Black-box entry subcircuit for gf180mcu_fd_sc_mcu7t5v0__fillcap_16 abstract view
.subckt gf180mcu_fd_sc_mcu7t5v0__fillcap_16 VDD VSS
.ends

* Black-box entry subcircuit for gf180mcu_fd_sc_mcu7t5v0__tiel abstract view
.subckt gf180mcu_fd_sc_mcu7t5v0__tiel ZN VDD VSS
.ends

* Black-box entry subcircuit for gf180mcu_fd_sc_mcu7t5v0__clkbuf_4 abstract view
.subckt gf180mcu_fd_sc_mcu7t5v0__clkbuf_4 I Z VDD VSS
.ends

* Black-box entry subcircuit for gf180mcu_fd_sc_mcu7t5v0__aoi21_1 abstract view
.subckt gf180mcu_fd_sc_mcu7t5v0__aoi21_1 A1 A2 B ZN VDD VSS
.ends

* Black-box entry subcircuit for gf180mcu_fd_sc_mcu7t5v0__and4_1 abstract view
.subckt gf180mcu_fd_sc_mcu7t5v0__and4_1 A1 A2 A3 A4 Z VDD VSS
.ends

* Black-box entry subcircuit for gf180mcu_fd_sc_mcu7t5v0__xor2_1 abstract view
.subckt gf180mcu_fd_sc_mcu7t5v0__xor2_1 A1 A2 Z VDD VSS
.ends

* Black-box entry subcircuit for gf180mcu_fd_sc_mcu7t5v0__nand4_2 abstract view
.subckt gf180mcu_fd_sc_mcu7t5v0__nand4_2 A1 A2 A3 A4 ZN VDD VSS
.ends

* Black-box entry subcircuit for gf180mcu_fd_sc_mcu7t5v0__oai21_1 abstract view
.subckt gf180mcu_fd_sc_mcu7t5v0__oai21_1 A1 A2 B ZN VDD VSS
.ends

* Black-box entry subcircuit for gf180mcu_fd_sc_mcu7t5v0__nand3_1 abstract view
.subckt gf180mcu_fd_sc_mcu7t5v0__nand3_1 A1 A2 A3 ZN VDD VSS
.ends

* Black-box entry subcircuit for gf180mcu_fd_sc_mcu7t5v0__aoi211_1 abstract view
.subckt gf180mcu_fd_sc_mcu7t5v0__aoi211_1 A1 A2 B C ZN VDD VSS
.ends

* Black-box entry subcircuit for gf180mcu_fd_sc_mcu7t5v0__nand2_1 abstract view
.subckt gf180mcu_fd_sc_mcu7t5v0__nand2_1 A1 A2 ZN VDD VSS
.ends

* Black-box entry subcircuit for gf180mcu_fd_sc_mcu7t5v0__or2_1 abstract view
.subckt gf180mcu_fd_sc_mcu7t5v0__or2_1 A1 A2 Z VDD VSS
.ends

* Black-box entry subcircuit for gf180mcu_fd_sc_mcu7t5v0__oai32_1 abstract view
.subckt gf180mcu_fd_sc_mcu7t5v0__oai32_1 A1 A2 A3 B1 B2 ZN VDD VSS
.ends

* Black-box entry subcircuit for gf180mcu_fd_sc_mcu7t5v0__and3_1 abstract view
.subckt gf180mcu_fd_sc_mcu7t5v0__and3_1 A1 A2 A3 Z VDD VSS
.ends

* Black-box entry subcircuit for gf180mcu_fd_sc_mcu7t5v0__buf_2 abstract view
.subckt gf180mcu_fd_sc_mcu7t5v0__buf_2 I Z VDD VSS
.ends

* Black-box entry subcircuit for gf180mcu_fd_sc_mcu7t5v0__endcap abstract view
.subckt gf180mcu_fd_sc_mcu7t5v0__endcap VDD VSS
.ends

* Black-box entry subcircuit for gf180mcu_fd_sc_mcu7t5v0__nand4_4 abstract view
.subckt gf180mcu_fd_sc_mcu7t5v0__nand4_4 A1 A2 A3 A4 ZN VDD VSS
.ends

* Black-box entry subcircuit for gf180mcu_fd_sc_mcu7t5v0__nand2_2 abstract view
.subckt gf180mcu_fd_sc_mcu7t5v0__nand2_2 A1 A2 ZN VDD VSS
.ends

* Black-box entry subcircuit for gf180mcu_fd_sc_mcu7t5v0__and2_1 abstract view
.subckt gf180mcu_fd_sc_mcu7t5v0__and2_1 A1 A2 Z VDD VSS
.ends

* Black-box entry subcircuit for gf180mcu_fd_sc_mcu7t5v0__dffrnq_1 abstract view
.subckt gf180mcu_fd_sc_mcu7t5v0__dffrnq_1 D RN CLK Q VDD VSS
.ends

* Black-box entry subcircuit for gf180mcu_fd_sc_mcu7t5v0__nand4_1 abstract view
.subckt gf180mcu_fd_sc_mcu7t5v0__nand4_1 A1 A2 A3 A4 ZN VDD VSS
.ends

* Black-box entry subcircuit for gf180mcu_fd_sc_mcu7t5v0__clkbuf_2 abstract view
.subckt gf180mcu_fd_sc_mcu7t5v0__clkbuf_2 I Z VDD VSS
.ends

* Black-box entry subcircuit for gf180mcu_fd_sc_mcu7t5v0__and4_2 abstract view
.subckt gf180mcu_fd_sc_mcu7t5v0__and4_2 A1 A2 A3 A4 Z VDD VSS
.ends

* Black-box entry subcircuit for gf180mcu_fd_sc_mcu7t5v0__clkbuf_1 abstract view
.subckt gf180mcu_fd_sc_mcu7t5v0__clkbuf_1 I Z VDD VSS
.ends

* Black-box entry subcircuit for gf180mcu_fd_sc_mcu7t5v0__buf_1 abstract view
.subckt gf180mcu_fd_sc_mcu7t5v0__buf_1 I Z VDD VSS
.ends

* Black-box entry subcircuit for gf180mcu_fd_sc_mcu7t5v0__clkbuf_16 abstract view
.subckt gf180mcu_fd_sc_mcu7t5v0__clkbuf_16 I Z VDD VSS
.ends

* Black-box entry subcircuit for gf180mcu_fd_sc_mcu7t5v0__nor3_1 abstract view
.subckt gf180mcu_fd_sc_mcu7t5v0__nor3_1 A1 A2 A3 ZN VDD VSS
.ends

* Black-box entry subcircuit for gf180mcu_fd_sc_mcu7t5v0__nor4_2 abstract view
.subckt gf180mcu_fd_sc_mcu7t5v0__nor4_2 A1 A2 A3 A4 ZN VDD VSS
.ends

* Black-box entry subcircuit for gf180mcu_fd_sc_mcu7t5v0__nor3_2 abstract view
.subckt gf180mcu_fd_sc_mcu7t5v0__nor3_2 A1 A2 A3 ZN VDD VSS
.ends

* Black-box entry subcircuit for gf180mcu_fd_sc_mcu7t5v0__or4_2 abstract view
.subckt gf180mcu_fd_sc_mcu7t5v0__or4_2 A1 A2 A3 A4 Z VDD VSS
.ends

* Black-box entry subcircuit for gf180mcu_fd_sc_mcu7t5v0__nor4_4 abstract view
.subckt gf180mcu_fd_sc_mcu7t5v0__nor4_4 A1 A2 A3 A4 ZN VDD VSS
.ends

.subckt cntr_example io_in[0] io_in[10] io_in[11] io_in[12] io_in[13] io_in[14] io_in[15]
+ io_in[16] io_in[17] io_in[18] io_in[19] io_in[1] io_in[20] io_in[21] io_in[22] io_in[23]
+ io_in[24] io_in[25] io_in[26] io_in[27] io_in[28] io_in[29] io_in[2] io_in[30] io_in[31]
+ io_in[32] io_in[33] io_in[34] io_in[35] io_in[36] io_in[37] io_in[3] io_in[4] io_in[5]
+ io_in[6] io_in[7] io_in[8] io_in[9] io_out[0] io_out[10] io_out[11] io_out[12] io_out[13]
+ io_out[14] io_out[15] io_out[16] io_out[17] io_out[18] io_out[19] io_out[1] io_out[20]
+ io_out[21] io_out[22] io_out[23] io_out[24] io_out[25] io_out[26] io_out[27] io_out[28]
+ io_out[29] io_out[2] io_out[30] io_out[31] io_out[32] io_out[33] io_out[34] io_out[35]
+ io_out[36] io_out[37] io_out[3] io_out[4] io_out[5] io_out[6] io_out[7] io_out[8]
+ io_out[9] vdd vss wb_clk_i wb_rst_i wbs_cyc_i wbs_stb_i wbs_we_i
XFILLER_54_258 vdd vss gf180mcu_fd_sc_mcu7t5v0__fill_2
XTAP_199 vdd vss gf180mcu_fd_sc_mcu7t5v0__filltie
XTAP_188 vdd vss gf180mcu_fd_sc_mcu7t5v0__filltie
XTAP_177 vdd vss gf180mcu_fd_sc_mcu7t5v0__filltie
XFILLER_27_428 vdd vss gf180mcu_fd_sc_mcu7t5v0__fillcap_64
XFILLER_52_29 vdd vss gf180mcu_fd_sc_mcu7t5v0__fillcap_4
X_432_ _250_ _003_ vdd vss gf180mcu_fd_sc_mcu7t5v0__clkinv_1
XANTENNA__429__I _250_ vdd vss gf180mcu_fd_sc_mcu7t5v0__antenna
X_501_ net54 _097_ vdd vss gf180mcu_fd_sc_mcu7t5v0__inv_1
XANTENNA_output37_I net37 vdd vss gf180mcu_fd_sc_mcu7t5v0__antenna
XANTENNA__329__A1 _146_ vdd vss gf180mcu_fd_sc_mcu7t5v0__antenna
X_294_ net39 _138_ vdd vss gf180mcu_fd_sc_mcu7t5v0__inv_1
XFILLER_42_84 vdd vss gf180mcu_fd_sc_mcu7t5v0__fillcap_4
XFILLER_42_40 vdd vss gf180mcu_fd_sc_mcu7t5v0__fillcap_4
XFILLER_41_453 vdd vss gf180mcu_fd_sc_mcu7t5v0__fillcap_32
X_363_ _146_ net8 _197_ vdd vss gf180mcu_fd_sc_mcu7t5v0__nor2_1
XFILLER_9_137 vdd vss gf180mcu_fd_sc_mcu7t5v0__fillcap_4
XFILLER_13_144 vdd vss gf180mcu_fd_sc_mcu7t5v0__fillcap_64
XFILLER_5_354 vdd vss gf180mcu_fd_sc_mcu7t5v0__fill_1
XFILLER_36_258 vdd vss gf180mcu_fd_sc_mcu7t5v0__fill_1
XFILLER_36_269 vdd vss gf180mcu_fd_sc_mcu7t5v0__fill_2
XFILLER_36_247 vdd vss gf180mcu_fd_sc_mcu7t5v0__fill_1
XFILLER_36_203 vdd vss gf180mcu_fd_sc_mcu7t5v0__fill_2
XFILLER_59_306 vdd vss gf180mcu_fd_sc_mcu7t5v0__fill_1
XFILLER_63_17 vdd vss gf180mcu_fd_sc_mcu7t5v0__fill_2
XFILLER_27_247 vdd vss gf180mcu_fd_sc_mcu7t5v0__fillcap_32
XFILLER_50_250 vdd vss gf180mcu_fd_sc_mcu7t5v0__fillcap_32
XANTENNA__262__A3 _099_ vdd vss gf180mcu_fd_sc_mcu7t5v0__antenna
XFILLER_37_73 vdd vss gf180mcu_fd_sc_mcu7t5v0__fill_1
XFILLER_18_247 vdd vss gf180mcu_fd_sc_mcu7t5v0__fill_1
XANTENNA__506__CLK clknet_2_1__leaf_wb_clk_i vdd vss gf180mcu_fd_sc_mcu7t5v0__antenna
XFILLER_41_283 vdd vss gf180mcu_fd_sc_mcu7t5v0__fill_1
X_415_ net65 _239_ vdd vss gf180mcu_fd_sc_mcu7t5v0__clkinv_1
XFILLER_33_206 vdd vss gf180mcu_fd_sc_mcu7t5v0__fillcap_4
X_346_ _177_ _178_ _071_ _182_ _046_ vdd vss gf180mcu_fd_sc_mcu7t5v0__oai22_1
X_277_ _076_ _123_ _124_ vdd vss gf180mcu_fd_sc_mcu7t5v0__nor2_1
XFILLER_49_350 vdd vss gf180mcu_fd_sc_mcu7t5v0__fillcap_4
XFILLER_64_397 vdd vss gf180mcu_fd_sc_mcu7t5v0__fill_2
XFILLER_20_456 vdd vss gf180mcu_fd_sc_mcu7t5v0__fillcap_4
XFILLER_32_250 vdd vss gf180mcu_fd_sc_mcu7t5v0__fillcap_32
XFILLER_67_191 vdd vss gf180mcu_fd_sc_mcu7t5v0__fill_2
XFILLER_59_136 vdd vss gf180mcu_fd_sc_mcu7t5v0__fillcap_4
XFILLER_55_320 vdd vss gf180mcu_fd_sc_mcu7t5v0__fill_2
XANTENNA_input36_I wbs_we_i vdd vss gf180mcu_fd_sc_mcu7t5v0__antenna
XANTENNA__529__CLK clknet_2_3__leaf_wb_clk_i vdd vss gf180mcu_fd_sc_mcu7t5v0__antenna
XFILLER_55_397 vdd vss gf180mcu_fd_sc_mcu7t5v0__fillcap_8
XFILLER_23_283 vdd vss gf180mcu_fd_sc_mcu7t5v0__fill_1
XANTENNA__442__I _251_ vdd vss gf180mcu_fd_sc_mcu7t5v0__antenna
XFILLER_23_53 vdd vss gf180mcu_fd_sc_mcu7t5v0__fillcap_16
XFILLER_2_176 vdd vss gf180mcu_fd_sc_mcu7t5v0__fill_1
XFILLER_65_139 vdd vss gf180mcu_fd_sc_mcu7t5v0__fill_2
XFILLER_61_334 vdd vss gf180mcu_fd_sc_mcu7t5v0__fill_2
XFILLER_46_353 vdd vss gf180mcu_fd_sc_mcu7t5v0__fill_2
XFILLER_0_68 vdd vss gf180mcu_fd_sc_mcu7t5v0__fill_2
X_329_ _146_ net14 _168_ vdd vss gf180mcu_fd_sc_mcu7t5v0__nor2_1
XFILLER_9_66 vdd vss gf180mcu_fd_sc_mcu7t5v0__fillcap_4
XFILLER_14_250 vdd vss gf180mcu_fd_sc_mcu7t5v0__fillcap_64
XFILLER_43_2 vdd vss gf180mcu_fd_sc_mcu7t5v0__fillcap_16
XFILLER_6_460 vdd vss gf180mcu_fd_sc_mcu7t5v0__fill_1
Xcntr_example_72 io_out[35] vdd vss gf180mcu_fd_sc_mcu7t5v0__tiel
XFILLER_52_389 vdd vss gf180mcu_fd_sc_mcu7t5v0__fill_1
XFILLER_52_345 vdd vss gf180mcu_fd_sc_mcu7t5v0__fill_2
XFILLER_47_139 vdd vss gf180mcu_fd_sc_mcu7t5v0__fill_2
XANTENNA__437__I _250_ vdd vss gf180mcu_fd_sc_mcu7t5v0__antenna
XFILLER_43_345 vdd vss gf180mcu_fd_sc_mcu7t5v0__fill_2
XFILLER_34_85 vdd vss gf180mcu_fd_sc_mcu7t5v0__fillcap_4
XFILLER_31_507 vdd vss gf180mcu_fd_sc_mcu7t5v0__fill_2
XTAP_507 vdd vss gf180mcu_fd_sc_mcu7t5v0__filltie
XFILLER_7_279 vdd vss gf180mcu_fd_sc_mcu7t5v0__fillcap_4
XFILLER_11_286 vdd vss gf180mcu_fd_sc_mcu7t5v0__fillcap_64
XTAP_529 vdd vss gf180mcu_fd_sc_mcu7t5v0__filltie
XTAP_518 vdd vss gf180mcu_fd_sc_mcu7t5v0__filltie
XFILLER_3_496 vdd vss gf180mcu_fd_sc_mcu7t5v0__fill_1
XFILLER_61_153 vdd vss gf180mcu_fd_sc_mcu7t5v0__fill_2
XANTENNA__347__I net46 vdd vss gf180mcu_fd_sc_mcu7t5v0__antenna
XFILLER_34_389 vdd vss gf180mcu_fd_sc_mcu7t5v0__fill_1
XANTENNA__392__A2 net3 vdd vss gf180mcu_fd_sc_mcu7t5v0__antenna
XFILLER_65_492 vdd vss gf180mcu_fd_sc_mcu7t5v0__fillcap_4
XFILLER_55_18 vdd vss gf180mcu_fd_sc_mcu7t5v0__fill_2
XFILLER_40_304 vdd vss gf180mcu_fd_sc_mcu7t5v0__fill_2
XANTENNA__257__I net40 vdd vss gf180mcu_fd_sc_mcu7t5v0__antenna
XFILLER_37_194 vdd vss gf180mcu_fd_sc_mcu7t5v0__fill_2
XFILLER_13_507 vdd vss gf180mcu_fd_sc_mcu7t5v0__fill_2
XANTENNA_output67_I net67 vdd vss gf180mcu_fd_sc_mcu7t5v0__antenna
XFILLER_0_433 vdd vss gf180mcu_fd_sc_mcu7t5v0__fill_2
XFILLER_0_422 vdd vss gf180mcu_fd_sc_mcu7t5v0__fill_1
XFILLER_45_73 vdd vss gf180mcu_fd_sc_mcu7t5v0__fillcap_32
XFILLER_16_389 vdd vss gf180mcu_fd_sc_mcu7t5v0__fill_1
XFILLER_28_172 vdd vss gf180mcu_fd_sc_mcu7t5v0__fillcap_4
XTAP_304 vdd vss gf180mcu_fd_sc_mcu7t5v0__filltie
XTAP_315 vdd vss gf180mcu_fd_sc_mcu7t5v0__filltie
XTAP_326 vdd vss gf180mcu_fd_sc_mcu7t5v0__filltie
XTAP_337 vdd vss gf180mcu_fd_sc_mcu7t5v0__filltie
XTAP_348 vdd vss gf180mcu_fd_sc_mcu7t5v0__filltie
XFILLER_47_492 vdd vss gf180mcu_fd_sc_mcu7t5v0__fillcap_4
XTAP_359 vdd vss gf180mcu_fd_sc_mcu7t5v0__filltie
XFILLER_62_440 vdd vss gf180mcu_fd_sc_mcu7t5v0__fillcap_4
XANTENNA__365__A2 _108_ vdd vss gf180mcu_fd_sc_mcu7t5v0__antenna
XFILLER_34_120 vdd vss gf180mcu_fd_sc_mcu7t5v0__fill_1
XFILLER_30_392 vdd vss gf180mcu_fd_sc_mcu7t5v0__fillcap_64
XFILLER_57_212 vdd vss gf180mcu_fd_sc_mcu7t5v0__fill_1
XFILLER_1_208 vdd vss gf180mcu_fd_sc_mcu7t5v0__fillcap_4
XFILLER_25_153 vdd vss gf180mcu_fd_sc_mcu7t5v0__fill_2
XFILLER_40_167 vdd vss gf180mcu_fd_sc_mcu7t5v0__fill_2
XANTENNA__356__A2 _190_ vdd vss gf180mcu_fd_sc_mcu7t5v0__antenna
XFILLER_15_65 vdd vss gf180mcu_fd_sc_mcu7t5v0__fillcap_4
Xoutput42 net42 io_out[14] vdd vss gf180mcu_fd_sc_mcu7t5v0__clkbuf_4
XANTENNA__450__I _249_ vdd vss gf180mcu_fd_sc_mcu7t5v0__antenna
Xoutput64 net64 io_out[5] vdd vss gf180mcu_fd_sc_mcu7t5v0__clkbuf_4
Xoutput53 net53 io_out[24] vdd vss gf180mcu_fd_sc_mcu7t5v0__clkbuf_4
XFILLER_31_97 vdd vss gf180mcu_fd_sc_mcu7t5v0__fillcap_4
XFILLER_63_215 vdd vss gf180mcu_fd_sc_mcu7t5v0__fillcap_8
XFILLER_63_204 vdd vss gf180mcu_fd_sc_mcu7t5v0__fill_2
XFILLER_56_61 vdd vss gf180mcu_fd_sc_mcu7t5v0__fill_1
XANTENNA__520__RN _014_ vdd vss gf180mcu_fd_sc_mcu7t5v0__antenna
XANTENNA__292__A1 net52 vdd vss gf180mcu_fd_sc_mcu7t5v0__antenna
XFILLER_0_241 vdd vss gf180mcu_fd_sc_mcu7t5v0__fillcap_4
XFILLER_44_495 vdd vss gf180mcu_fd_sc_mcu7t5v0__fill_2
XFILLER_29_492 vdd vss gf180mcu_fd_sc_mcu7t5v0__fillcap_4
XFILLER_31_101 vdd vss gf180mcu_fd_sc_mcu7t5v0__fill_1
XFILLER_8_385 vdd vss gf180mcu_fd_sc_mcu7t5v0__fillcap_4
XFILLER_12_392 vdd vss gf180mcu_fd_sc_mcu7t5v0__fillcap_64
XFILLER_39_223 vdd vss gf180mcu_fd_sc_mcu7t5v0__fill_2
XFILLER_39_212 vdd vss gf180mcu_fd_sc_mcu7t5v0__fill_1
XTAP_189 vdd vss gf180mcu_fd_sc_mcu7t5v0__filltie
XTAP_178 vdd vss gf180mcu_fd_sc_mcu7t5v0__filltie
XTAP_167 vdd vss gf180mcu_fd_sc_mcu7t5v0__filltie
XTAP_156 vdd vss gf180mcu_fd_sc_mcu7t5v0__filltie
XTAP_145 vdd vss gf180mcu_fd_sc_mcu7t5v0__filltie
XANTENNA__511__RN _005_ vdd vss gf180mcu_fd_sc_mcu7t5v0__antenna
XFILLER_10_318 vdd vss gf180mcu_fd_sc_mcu7t5v0__fill_1
XFILLER_22_101 vdd vss gf180mcu_fd_sc_mcu7t5v0__fillcap_4
XFILLER_45_215 vdd vss gf180mcu_fd_sc_mcu7t5v0__fillcap_8
XFILLER_45_204 vdd vss gf180mcu_fd_sc_mcu7t5v0__fillcap_8
X_500_ net55 _096_ vdd vss gf180mcu_fd_sc_mcu7t5v0__inv_1
XANTENNA__445__I _251_ vdd vss gf180mcu_fd_sc_mcu7t5v0__antenna
XFILLER_53_281 vdd vss gf180mcu_fd_sc_mcu7t5v0__fill_2
X_431_ _250_ _002_ vdd vss gf180mcu_fd_sc_mcu7t5v0__clkinv_1
XFILLER_45_259 vdd vss gf180mcu_fd_sc_mcu7t5v0__fillcap_4
XFILLER_26_495 vdd vss gf180mcu_fd_sc_mcu7t5v0__fillcap_8
X_362_ _190_ _195_ _192_ _196_ vdd vss gf180mcu_fd_sc_mcu7t5v0__aoi21_1
X_293_ net66 net65 _065_ _103_ _137_ vdd vss gf180mcu_fd_sc_mcu7t5v0__and4_1
XFILLER_67_60 vdd vss gf180mcu_fd_sc_mcu7t5v0__fill_1
XANTENNA__265__A1 _112_ vdd vss gf180mcu_fd_sc_mcu7t5v0__antenna
XFILLER_51_207 vdd vss gf180mcu_fd_sc_mcu7t5v0__fill_2
XFILLER_27_215 vdd vss gf180mcu_fd_sc_mcu7t5v0__fillcap_8
XFILLER_67_395 vdd vss gf180mcu_fd_sc_mcu7t5v0__fillcap_4
XFILLER_23_421 vdd vss gf180mcu_fd_sc_mcu7t5v0__fillcap_4
XFILLER_6_108 vdd vss gf180mcu_fd_sc_mcu7t5v0__fillcap_64
XANTENNA__495__B2 _082_ vdd vss gf180mcu_fd_sc_mcu7t5v0__antenna
XANTENNA__495__A1 _071_ vdd vss gf180mcu_fd_sc_mcu7t5v0__antenna
XFILLER_2_314 vdd vss gf180mcu_fd_sc_mcu7t5v0__fillcap_4
XANTENNA__262__A4 _110_ vdd vss gf180mcu_fd_sc_mcu7t5v0__antenna
XFILLER_53_73 vdd vss gf180mcu_fd_sc_mcu7t5v0__fill_1
XFILLER_41_251 vdd vss gf180mcu_fd_sc_mcu7t5v0__fill_2
X_414_ _068_ _234_ _071_ _238_ _034_ vdd vss gf180mcu_fd_sc_mcu7t5v0__oai22_1
X_276_ _121_ _122_ _123_ vdd vss gf180mcu_fd_sc_mcu7t5v0__xor2_1
XFILLER_14_487 vdd vss gf180mcu_fd_sc_mcu7t5v0__fill_2
X_345_ _076_ net11 _181_ _182_ vdd vss gf180mcu_fd_sc_mcu7t5v0__aoi21_1
XFILLER_5_141 vdd vss gf180mcu_fd_sc_mcu7t5v0__fill_1
XFILLER_64_321 vdd vss gf180mcu_fd_sc_mcu7t5v0__fillcap_8
XFILLER_64_332 vdd vss gf180mcu_fd_sc_mcu7t5v0__fill_2
XANTENNA__410__A1 net65 vdd vss gf180mcu_fd_sc_mcu7t5v0__antenna
XFILLER_32_240 vdd vss gf180mcu_fd_sc_mcu7t5v0__fill_2
XFILLER_32_284 vdd vss gf180mcu_fd_sc_mcu7t5v0__fill_1
XFILLER_32_295 vdd vss gf180mcu_fd_sc_mcu7t5v0__fill_2
XANTENNA_input29_I io_in[6] vdd vss gf180mcu_fd_sc_mcu7t5v0__antenna
XFILLER_55_354 vdd vss gf180mcu_fd_sc_mcu7t5v0__fill_1
XFILLER_23_21 vdd vss gf180mcu_fd_sc_mcu7t5v0__fillcap_32
XFILLER_7_428 vdd vss gf180mcu_fd_sc_mcu7t5v0__fillcap_64
XFILLER_3_2 vdd vss gf180mcu_fd_sc_mcu7t5v0__fill_1
XFILLER_64_61 vdd vss gf180mcu_fd_sc_mcu7t5v0__fill_2
XFILLER_61_357 vdd vss gf180mcu_fd_sc_mcu7t5v0__fill_1
XFILLER_46_365 vdd vss gf180mcu_fd_sc_mcu7t5v0__fill_2
XFILLER_46_321 vdd vss gf180mcu_fd_sc_mcu7t5v0__fill_1
X_259_ net39 net38 net68 net67 _108_ vdd vss gf180mcu_fd_sc_mcu7t5v0__nand4_2
X_328_ _162_ _166_ _064_ _167_ vdd vss gf180mcu_fd_sc_mcu7t5v0__aoi21_1
XFILLER_36_2 vdd vss gf180mcu_fd_sc_mcu7t5v0__fillcap_32
XFILLER_37_354 vdd vss gf180mcu_fd_sc_mcu7t5v0__fill_1
XFILLER_37_310 vdd vss gf180mcu_fd_sc_mcu7t5v0__fill_2
Xcntr_example_73 io_out[36] vdd vss gf180mcu_fd_sc_mcu7t5v0__tiel
XFILLER_64_173 vdd vss gf180mcu_fd_sc_mcu7t5v0__fillcap_4
XFILLER_52_313 vdd vss gf180mcu_fd_sc_mcu7t5v0__fillcap_4
XFILLER_40_508 vdd vss gf180mcu_fd_sc_mcu7t5v0__fill_1
XFILLER_20_243 vdd vss gf180mcu_fd_sc_mcu7t5v0__fillcap_4
XFILLER_55_140 vdd vss gf180mcu_fd_sc_mcu7t5v0__fill_2
XFILLER_43_357 vdd vss gf180mcu_fd_sc_mcu7t5v0__fill_1
XFILLER_43_313 vdd vss gf180mcu_fd_sc_mcu7t5v0__fillcap_16
XFILLER_43_302 vdd vss gf180mcu_fd_sc_mcu7t5v0__fillcap_8
XFILLER_28_321 vdd vss gf180mcu_fd_sc_mcu7t5v0__fillcap_64
XANTENNA__453__I _252_ vdd vss gf180mcu_fd_sc_mcu7t5v0__antenna
XTAP_519 vdd vss gf180mcu_fd_sc_mcu7t5v0__filltie
XTAP_508 vdd vss gf180mcu_fd_sc_mcu7t5v0__filltie
XFILLER_50_85 vdd vss gf180mcu_fd_sc_mcu7t5v0__fill_2
XFILLER_19_354 vdd vss gf180mcu_fd_sc_mcu7t5v0__fill_1
XFILLER_34_313 vdd vss gf180mcu_fd_sc_mcu7t5v0__fillcap_4
XFILLER_22_508 vdd vss gf180mcu_fd_sc_mcu7t5v0__fill_1
XANTENNA__519__CLK clknet_2_0__leaf_wb_clk_i vdd vss gf180mcu_fd_sc_mcu7t5v0__antenna
XFILLER_37_184 vdd vss gf180mcu_fd_sc_mcu7t5v0__fill_2
XFILLER_25_357 vdd vss gf180mcu_fd_sc_mcu7t5v0__fillcap_64
XANTENNA__383__A3 _213_ vdd vss gf180mcu_fd_sc_mcu7t5v0__antenna
XFILLER_52_176 vdd vss gf180mcu_fd_sc_mcu7t5v0__fill_1
XFILLER_52_154 vdd vss gf180mcu_fd_sc_mcu7t5v0__fill_2
XFILLER_40_316 vdd vss gf180mcu_fd_sc_mcu7t5v0__fill_2
XFILLER_0_489 vdd vss gf180mcu_fd_sc_mcu7t5v0__fill_1
XFILLER_0_445 vdd vss gf180mcu_fd_sc_mcu7t5v0__fillcap_8
XFILLER_29_97 vdd vss gf180mcu_fd_sc_mcu7t5v0__fill_2
XFILLER_56_460 vdd vss gf180mcu_fd_sc_mcu7t5v0__fill_1
XANTENNA__448__I _251_ vdd vss gf180mcu_fd_sc_mcu7t5v0__antenna
XFILLER_28_195 vdd vss gf180mcu_fd_sc_mcu7t5v0__fillcap_4
XFILLER_61_95 vdd vss gf180mcu_fd_sc_mcu7t5v0__fillcap_32
XFILLER_61_73 vdd vss gf180mcu_fd_sc_mcu7t5v0__fillcap_8
XFILLER_39_405 vdd vss gf180mcu_fd_sc_mcu7t5v0__fillcap_16
XFILLER_3_283 vdd vss gf180mcu_fd_sc_mcu7t5v0__fill_1
XTAP_305 vdd vss gf180mcu_fd_sc_mcu7t5v0__filltie
XTAP_316 vdd vss gf180mcu_fd_sc_mcu7t5v0__filltie
XTAP_327 vdd vss gf180mcu_fd_sc_mcu7t5v0__filltie
XTAP_338 vdd vss gf180mcu_fd_sc_mcu7t5v0__filltie
XTAP_349 vdd vss gf180mcu_fd_sc_mcu7t5v0__filltie
XFILLER_62_452 vdd vss gf180mcu_fd_sc_mcu7t5v0__fill_2
XFILLER_62_463 vdd vss gf180mcu_fd_sc_mcu7t5v0__fill_1
XFILLER_34_176 vdd vss gf180mcu_fd_sc_mcu7t5v0__fill_1
XFILLER_34_143 vdd vss gf180mcu_fd_sc_mcu7t5v0__fill_2
XFILLER_57_246 vdd vss gf180mcu_fd_sc_mcu7t5v0__fill_2
XFILLER_53_496 vdd vss gf180mcu_fd_sc_mcu7t5v0__fill_1
XANTENNA_input11_I io_in[19] vdd vss gf180mcu_fd_sc_mcu7t5v0__antenna
XFILLER_40_179 vdd vss gf180mcu_fd_sc_mcu7t5v0__fill_1
XFILLER_31_54 vdd vss gf180mcu_fd_sc_mcu7t5v0__fillcap_16
Xoutput54 net54 io_out[25] vdd vss gf180mcu_fd_sc_mcu7t5v0__clkbuf_4
Xoutput43 net43 io_out[15] vdd vss gf180mcu_fd_sc_mcu7t5v0__clkbuf_4
Xoutput65 net65 io_out[6] vdd vss gf180mcu_fd_sc_mcu7t5v0__clkbuf_4
XFILLER_63_227 vdd vss gf180mcu_fd_sc_mcu7t5v0__fill_2
XFILLER_48_257 vdd vss gf180mcu_fd_sc_mcu7t5v0__fillcap_16
XANTENNA__292__A2 net49 vdd vss gf180mcu_fd_sc_mcu7t5v0__antenna
XFILLER_0_297 vdd vss gf180mcu_fd_sc_mcu7t5v0__fill_2
XFILLER_0_275 vdd vss gf180mcu_fd_sc_mcu7t5v0__fill_2
XFILLER_44_463 vdd vss gf180mcu_fd_sc_mcu7t5v0__fillcap_32
XFILLER_16_176 vdd vss gf180mcu_fd_sc_mcu7t5v0__fill_1
XFILLER_31_179 vdd vss gf180mcu_fd_sc_mcu7t5v0__fillcap_8
XTAP_179 vdd vss gf180mcu_fd_sc_mcu7t5v0__filltie
XTAP_168 vdd vss gf180mcu_fd_sc_mcu7t5v0__filltie
XTAP_157 vdd vss gf180mcu_fd_sc_mcu7t5v0__filltie
XTAP_146 vdd vss gf180mcu_fd_sc_mcu7t5v0__filltie
XANTENNA_input3_I io_in[11] vdd vss gf180mcu_fd_sc_mcu7t5v0__antenna
XFILLER_62_271 vdd vss gf180mcu_fd_sc_mcu7t5v0__fill_2
XFILLER_50_433 vdd vss gf180mcu_fd_sc_mcu7t5v0__fillcap_16
XFILLER_47_290 vdd vss gf180mcu_fd_sc_mcu7t5v0__fill_2
XFILLER_39_279 vdd vss gf180mcu_fd_sc_mcu7t5v0__fillcap_4
XFILLER_35_496 vdd vss gf180mcu_fd_sc_mcu7t5v0__fill_1
XFILLER_22_179 vdd vss gf180mcu_fd_sc_mcu7t5v0__fillcap_64
XFILLER_7_9 vdd vss gf180mcu_fd_sc_mcu7t5v0__fillcap_32
XFILLER_26_21 vdd vss gf180mcu_fd_sc_mcu7t5v0__fillcap_8
X_430_ _250_ _001_ vdd vss gf180mcu_fd_sc_mcu7t5v0__clkinv_1
XFILLER_53_271 vdd vss gf180mcu_fd_sc_mcu7t5v0__fill_2
XFILLER_53_260 vdd vss gf180mcu_fd_sc_mcu7t5v0__fill_2
XFILLER_41_499 vdd vss gf180mcu_fd_sc_mcu7t5v0__fillcap_8
XFILLER_41_411 vdd vss gf180mcu_fd_sc_mcu7t5v0__fillcap_8
X_361_ _104_ _109_ _170_ _195_ vdd vss gf180mcu_fd_sc_mcu7t5v0__oai21_1
X_292_ net52 net49 _100_ _101_ _136_ vdd vss gf180mcu_fd_sc_mcu7t5v0__and4_1
XFILLER_26_463 vdd vss gf180mcu_fd_sc_mcu7t5v0__fillcap_32
XANTENNA__461__I _249_ vdd vss gf180mcu_fd_sc_mcu7t5v0__antenna
XFILLER_42_64 vdd vss gf180mcu_fd_sc_mcu7t5v0__fill_2
XFILLER_67_72 vdd vss gf180mcu_fd_sc_mcu7t5v0__fillcap_8
XANTENNA__265__A2 net60 vdd vss gf180mcu_fd_sc_mcu7t5v0__antenna
XFILLER_3_69 vdd vss gf180mcu_fd_sc_mcu7t5v0__fill_2
XFILLER_64_503 vdd vss gf180mcu_fd_sc_mcu7t5v0__fillcap_4
XFILLER_44_271 vdd vss gf180mcu_fd_sc_mcu7t5v0__fill_2
XFILLER_17_496 vdd vss gf180mcu_fd_sc_mcu7t5v0__fill_1
XFILLER_44_293 vdd vss gf180mcu_fd_sc_mcu7t5v0__fill_2
XFILLER_8_172 vdd vss gf180mcu_fd_sc_mcu7t5v0__fillcap_4
XFILLER_66_2 vdd vss gf180mcu_fd_sc_mcu7t5v0__fill_1
XFILLER_59_319 vdd vss gf180mcu_fd_sc_mcu7t5v0__fillcap_32
XFILLER_67_352 vdd vss gf180mcu_fd_sc_mcu7t5v0__fill_2
XFILLER_27_238 vdd vss gf180mcu_fd_sc_mcu7t5v0__fill_2
XFILLER_27_227 vdd vss gf180mcu_fd_sc_mcu7t5v0__fill_1
XFILLER_63_19 vdd vss gf180mcu_fd_sc_mcu7t5v0__fill_1
XFILLER_42_219 vdd vss gf180mcu_fd_sc_mcu7t5v0__fill_2
XFILLER_10_105 vdd vss gf180mcu_fd_sc_mcu7t5v0__fill_1
XFILLER_23_499 vdd vss gf180mcu_fd_sc_mcu7t5v0__fillcap_8
XANTENNA__281__I net57 vdd vss gf180mcu_fd_sc_mcu7t5v0__antenna
XFILLER_12_34 vdd vss gf180mcu_fd_sc_mcu7t5v0__fill_1
XANTENNA_output42_I net42 vdd vss gf180mcu_fd_sc_mcu7t5v0__antenna
XANTENNA__456__I _252_ vdd vss gf180mcu_fd_sc_mcu7t5v0__antenna
XFILLER_46_503 vdd vss gf180mcu_fd_sc_mcu7t5v0__fillcap_4
X_413_ _076_ net30 _237_ _238_ vdd vss gf180mcu_fd_sc_mcu7t5v0__aoi21_1
XFILLER_37_86 vdd vss gf180mcu_fd_sc_mcu7t5v0__fill_2
XFILLER_37_53 vdd vss gf180mcu_fd_sc_mcu7t5v0__fillcap_16
X_275_ net57 _099_ _110_ _122_ vdd vss gf180mcu_fd_sc_mcu7t5v0__nand3_1
XFILLER_41_263 vdd vss gf180mcu_fd_sc_mcu7t5v0__fillcap_4
X_344_ _178_ _180_ _172_ net36 _181_ vdd vss gf180mcu_fd_sc_mcu7t5v0__aoi211_1
XFILLER_64_388 vdd vss gf180mcu_fd_sc_mcu7t5v0__fill_2
XANTENNA__410__A2 _065_ vdd vss gf180mcu_fd_sc_mcu7t5v0__antenna
XFILLER_9_492 vdd vss gf180mcu_fd_sc_mcu7t5v0__fillcap_4
XFILLER_15_208 vdd vss gf180mcu_fd_sc_mcu7t5v0__fillcap_4
XFILLER_11_425 vdd vss gf180mcu_fd_sc_mcu7t5v0__fill_1
XFILLER_2_101 vdd vss gf180mcu_fd_sc_mcu7t5v0__fillcap_4
XFILLER_58_182 vdd vss gf180mcu_fd_sc_mcu7t5v0__fillcap_32
XFILLER_61_369 vdd vss gf180mcu_fd_sc_mcu7t5v0__fill_2
XFILLER_0_37 vdd vss gf180mcu_fd_sc_mcu7t5v0__fill_1
X_258_ net42 net41 _107_ vdd vss gf180mcu_fd_sc_mcu7t5v0__nand2_1
X_327_ net50 _156_ _166_ vdd vss gf180mcu_fd_sc_mcu7t5v0__or2_1
XFILLER_6_495 vdd vss gf180mcu_fd_sc_mcu7t5v0__fill_2
Xcntr_example_74 io_out[37] vdd vss gf180mcu_fd_sc_mcu7t5v0__tiel
XFILLER_29_2 vdd vss gf180mcu_fd_sc_mcu7t5v0__fillcap_64
XFILLER_56_108 vdd vss gf180mcu_fd_sc_mcu7t5v0__fill_1
XFILLER_49_160 vdd vss gf180mcu_fd_sc_mcu7t5v0__fill_2
XFILLER_37_333 vdd vss gf180mcu_fd_sc_mcu7t5v0__fill_2
XFILLER_18_33 vdd vss gf180mcu_fd_sc_mcu7t5v0__fill_2
XANTENNA__386__A1 _202_ vdd vss gf180mcu_fd_sc_mcu7t5v0__antenna
XFILLER_7_215 vdd vss gf180mcu_fd_sc_mcu7t5v0__fillcap_64
XFILLER_59_73 vdd vss gf180mcu_fd_sc_mcu7t5v0__fill_1
XTAP_509 vdd vss gf180mcu_fd_sc_mcu7t5v0__filltie
XFILLER_50_97 vdd vss gf180mcu_fd_sc_mcu7t5v0__fillcap_4
XANTENNA__310__A1 net53 vdd vss gf180mcu_fd_sc_mcu7t5v0__antenna
XFILLER_3_421 vdd vss gf180mcu_fd_sc_mcu7t5v0__fillcap_4
XFILLER_46_174 vdd vss gf180mcu_fd_sc_mcu7t5v0__fill_2
XFILLER_38_108 vdd vss gf180mcu_fd_sc_mcu7t5v0__fillcap_16
XFILLER_61_144 vdd vss gf180mcu_fd_sc_mcu7t5v0__fillcap_4
XANTENNA__377__B2 _177_ vdd vss gf180mcu_fd_sc_mcu7t5v0__antenna
XANTENNA__377__A1 _188_ vdd vss gf180mcu_fd_sc_mcu7t5v0__antenna
XFILLER_57_428 vdd vss gf180mcu_fd_sc_mcu7t5v0__fillcap_64
XFILLER_57_406 vdd vss gf180mcu_fd_sc_mcu7t5v0__fill_2
XANTENNA__301__A1 _076_ vdd vss gf180mcu_fd_sc_mcu7t5v0__antenna
XANTENNA__368__A1 _064_ vdd vss gf180mcu_fd_sc_mcu7t5v0__antenna
XFILLER_37_141 vdd vss gf180mcu_fd_sc_mcu7t5v0__fill_1
XFILLER_40_339 vdd vss gf180mcu_fd_sc_mcu7t5v0__fillcap_4
XFILLER_0_402 vdd vss gf180mcu_fd_sc_mcu7t5v0__fillcap_8
XFILLER_20_34 vdd vss gf180mcu_fd_sc_mcu7t5v0__fill_1
XFILLER_0_457 vdd vss gf180mcu_fd_sc_mcu7t5v0__fillcap_16
XFILLER_16_314 vdd vss gf180mcu_fd_sc_mcu7t5v0__fillcap_4
XANTENNA__359__A1 _146_ vdd vss gf180mcu_fd_sc_mcu7t5v0__antenna
XFILLER_43_177 vdd vss gf180mcu_fd_sc_mcu7t5v0__fillcap_32
XFILLER_43_155 vdd vss gf180mcu_fd_sc_mcu7t5v0__fill_2
XFILLER_43_144 vdd vss gf180mcu_fd_sc_mcu7t5v0__fill_1
XFILLER_43_111 vdd vss gf180mcu_fd_sc_mcu7t5v0__fill_2
XFILLER_61_85 vdd vss gf180mcu_fd_sc_mcu7t5v0__fill_1
XFILLER_39_428 vdd vss gf180mcu_fd_sc_mcu7t5v0__fillcap_64
XTAP_306 vdd vss gf180mcu_fd_sc_mcu7t5v0__filltie
XTAP_317 vdd vss gf180mcu_fd_sc_mcu7t5v0__filltie
XTAP_328 vdd vss gf180mcu_fd_sc_mcu7t5v0__filltie
XTAP_339 vdd vss gf180mcu_fd_sc_mcu7t5v0__filltie
XFILLER_66_247 vdd vss gf180mcu_fd_sc_mcu7t5v0__fill_1
XFILLER_34_133 vdd vss gf180mcu_fd_sc_mcu7t5v0__fillcap_4
XFILLER_34_100 vdd vss gf180mcu_fd_sc_mcu7t5v0__fill_2
XFILLER_19_141 vdd vss gf180mcu_fd_sc_mcu7t5v0__fill_1
XFILLER_40_136 vdd vss gf180mcu_fd_sc_mcu7t5v0__fill_2
XFILLER_40_103 vdd vss gf180mcu_fd_sc_mcu7t5v0__fill_2
XFILLER_25_144 vdd vss gf180mcu_fd_sc_mcu7t5v0__fill_1
XFILLER_40_169 vdd vss gf180mcu_fd_sc_mcu7t5v0__fill_1
XFILLER_21_350 vdd vss gf180mcu_fd_sc_mcu7t5v0__fillcap_4
Xoutput55 net55 io_out[26] vdd vss gf180mcu_fd_sc_mcu7t5v0__clkbuf_4
Xoutput44 net44 io_out[16] vdd vss gf180mcu_fd_sc_mcu7t5v0__clkbuf_4
XFILLER_48_214 vdd vss gf180mcu_fd_sc_mcu7t5v0__fillcap_16
Xoutput66 net66 io_out[7] vdd vss gf180mcu_fd_sc_mcu7t5v0__clkbuf_4
XANTENNA__459__I _252_ vdd vss gf180mcu_fd_sc_mcu7t5v0__antenna
XFILLER_56_96 vdd vss gf180mcu_fd_sc_mcu7t5v0__fillcap_4
XFILLER_48_247 vdd vss gf180mcu_fd_sc_mcu7t5v0__fill_1
XANTENNA__509__CLK clknet_2_3__leaf_wb_clk_i vdd vss gf180mcu_fd_sc_mcu7t5v0__antenna
XFILLER_44_497 vdd vss gf180mcu_fd_sc_mcu7t5v0__fill_1
XFILLER_8_321 vdd vss gf180mcu_fd_sc_mcu7t5v0__fillcap_64
XFILLER_31_136 vdd vss gf180mcu_fd_sc_mcu7t5v0__fillcap_4
XFILLER_31_147 vdd vss gf180mcu_fd_sc_mcu7t5v0__fillcap_32
XANTENNA__504__A1 net51 vdd vss gf180mcu_fd_sc_mcu7t5v0__antenna
XANTENNA__268__B1 _112_ vdd vss gf180mcu_fd_sc_mcu7t5v0__antenna
XTAP_169 vdd vss gf180mcu_fd_sc_mcu7t5v0__filltie
XTAP_158 vdd vss gf180mcu_fd_sc_mcu7t5v0__filltie
XTAP_147 vdd vss gf180mcu_fd_sc_mcu7t5v0__filltie
XTAP_136 vdd vss gf180mcu_fd_sc_mcu7t5v0__filltie
XFILLER_11_2 vdd vss gf180mcu_fd_sc_mcu7t5v0__fill_1
XFILLER_62_250 vdd vss gf180mcu_fd_sc_mcu7t5v0__fill_1
XFILLER_50_401 vdd vss gf180mcu_fd_sc_mcu7t5v0__fillcap_32
XFILLER_30_191 vdd vss gf180mcu_fd_sc_mcu7t5v0__fill_1
XFILLER_2_508 vdd vss gf180mcu_fd_sc_mcu7t5v0__fill_1
XFILLER_38_291 vdd vss gf180mcu_fd_sc_mcu7t5v0__fill_1
XFILLER_26_33 vdd vss gf180mcu_fd_sc_mcu7t5v0__fill_2
X_291_ _126_ _134_ _135_ _095_ _082_ _054_ vdd vss gf180mcu_fd_sc_mcu7t5v0__oai32_1
XFILLER_53_283 vdd vss gf180mcu_fd_sc_mcu7t5v0__fill_1
XFILLER_42_76 vdd vss gf180mcu_fd_sc_mcu7t5v0__fill_2
XFILLER_41_423 vdd vss gf180mcu_fd_sc_mcu7t5v0__fill_2
X_360_ _188_ _193_ _194_ _189_ _151_ _044_ vdd vss gf180mcu_fd_sc_mcu7t5v0__oai32_1
XFILLER_5_357 vdd vss gf180mcu_fd_sc_mcu7t5v0__fillcap_64
XFILLER_67_84 vdd vss gf180mcu_fd_sc_mcu7t5v0__fill_1
XANTENNA__265__A3 _111_ vdd vss gf180mcu_fd_sc_mcu7t5v0__antenna
XFILLER_44_250 vdd vss gf180mcu_fd_sc_mcu7t5v0__fillcap_4
XFILLER_32_456 vdd vss gf180mcu_fd_sc_mcu7t5v0__fillcap_4
X_489_ _071_ _086_ _087_ _083_ _082_ _061_ vdd vss gf180mcu_fd_sc_mcu7t5v0__oai32_1
XFILLER_59_2 vdd vss gf180mcu_fd_sc_mcu7t5v0__fill_1
XFILLER_67_331 vdd vss gf180mcu_fd_sc_mcu7t5v0__fillcap_16
XFILLER_50_286 vdd vss gf180mcu_fd_sc_mcu7t5v0__fill_1
XFILLER_37_21 vdd vss gf180mcu_fd_sc_mcu7t5v0__fillcap_32
XFILLER_61_507 vdd vss gf180mcu_fd_sc_mcu7t5v0__fill_2
X_412_ _072_ _104_ _236_ _237_ vdd vss gf180mcu_fd_sc_mcu7t5v0__and3_1