*SPEF "ieee 1481-1999"
*DESIGN "user_project_wrapper"
*DATE "11:11:11 Fri 11 11, 1111"
*VENDOR "OpenRCX"
*PROGRAM "Parallel Extraction"
*VERSION "1.0"
*DESIGN_FLOW "NAME_SCOPE LOCAL" "PIN_CAP NONE"
*DIVIDER /
*DELIMITER :
*BUS_DELIMITER []
*T_UNIT 1 NS
*C_UNIT 1 PF
*R_UNIT 1 OHM
*L_UNIT 1 HENRY

*NAME_MAP
*1 io_in[0]
*2 io_in[10]
*3 io_in[11]
*4 io_in[12]
*5 io_in[13]
*6 io_in[14]
*7 io_in[15]
*8 io_in[16]
*9 io_in[17]
*10 io_in[18]
*11 io_in[19]
*12 io_in[1]
*13 io_in[20]
*14 io_in[21]
*15 io_in[22]
*16 io_in[23]
*17 io_in[24]
*18 io_in[25]
*19 io_in[26]
*20 io_in[27]
*21 io_in[28]
*22 io_in[29]
*23 io_in[2]
*24 io_in[30]
*25 io_in[31]
*26 io_in[32]
*27 io_in[33]
*28 io_in[34]
*29 io_in[35]
*30 io_in[36]
*31 io_in[37]
*32 io_in[3]
*33 io_in[4]
*34 io_in[5]
*35 io_in[6]
*36 io_in[7]
*37 io_in[8]
*38 io_in[9]
*39 io_oeb[0]
*40 io_oeb[10]
*41 io_oeb[11]
*42 io_oeb[12]
*43 io_oeb[13]
*44 io_oeb[14]
*45 io_oeb[15]
*46 io_oeb[16]
*47 io_oeb[17]
*48 io_oeb[18]
*49 io_oeb[19]
*50 io_oeb[1]
*51 io_oeb[20]
*52 io_oeb[21]
*53 io_oeb[22]
*54 io_oeb[23]
*55 io_oeb[24]
*56 io_oeb[25]
*57 io_oeb[26]
*58 io_oeb[27]
*59 io_oeb[28]
*60 io_oeb[29]
*61 io_oeb[2]
*62 io_oeb[30]
*63 io_oeb[31]
*64 io_oeb[32]
*65 io_oeb[33]
*66 io_oeb[34]
*67 io_oeb[35]
*68 io_oeb[36]
*69 io_oeb[37]
*70 io_oeb[3]
*71 io_oeb[4]
*72 io_oeb[5]
*73 io_oeb[6]
*74 io_oeb[7]
*75 io_oeb[8]
*76 io_oeb[9]
*77 io_out[0]
*78 io_out[10]
*79 io_out[11]
*80 io_out[12]
*81 io_out[13]
*82 io_out[14]
*83 io_out[15]
*84 io_out[16]
*85 io_out[17]
*86 io_out[18]
*87 io_out[19]
*88 io_out[1]
*89 io_out[20]
*90 io_out[21]
*91 io_out[22]
*92 io_out[23]
*93 io_out[24]
*94 io_out[25]
*95 io_out[26]
*96 io_out[27]
*97 io_out[28]
*98 io_out[29]
*99 io_out[2]
*100 io_out[30]
*101 io_out[31]
*102 io_out[32]
*103 io_out[33]
*104 io_out[34]
*105 io_out[35]
*106 io_out[36]
*107 io_out[37]
*108 io_out[3]
*109 io_out[4]
*110 io_out[5]
*111 io_out[6]
*112 io_out[7]
*113 io_out[8]
*114 io_out[9]
*115 la_data_in[0]
*116 la_data_in[10]
*117 la_data_in[11]
*118 la_data_in[12]
*119 la_data_in[13]
*120 la_data_in[14]
*121 la_data_in[15]
*122 la_data_in[16]
*123 la_data_in[17]
*124 la_data_in[18]
*125 la_data_in[19]
*126 la_data_in[1]
*127 la_data_in[20]
*128 la_data_in[21]
*129 la_data_in[22]
*130 la_data_in[23]
*131 la_data_in[24]
*132 la_data_in[25]
*133 la_data_in[26]
*134 la_data_in[27]
*135 la_data_in[28]
*136 la_data_in[29]
*137 la_data_in[2]
*138 la_data_in[30]
*139 la_data_in[31]
*140 la_data_in[32]
*141 la_data_in[33]
*142 la_data_in[34]
*143 la_data_in[35]
*144 la_data_in[36]
*145 la_data_in[37]
*146 la_data_in[38]
*147 la_data_in[39]
*148 la_data_in[3]
*149 la_data_in[40]
*150 la_data_in[41]
*151 la_data_in[42]
*152 la_data_in[43]
*153 la_data_in[44]
*154 la_data_in[45]
*155 la_data_in[46]
*156 la_data_in[47]
*157 la_data_in[48]
*158 la_data_in[49]
*159 la_data_in[4]
*160 la_data_in[50]
*161 la_data_in[51]
*162 la_data_in[52]
*163 la_data_in[53]
*164 la_data_in[54]
*165 la_data_in[55]
*166 la_data_in[56]
*167 la_data_in[57]
*168 la_data_in[58]
*169 la_data_in[59]
*170 la_data_in[5]
*171 la_data_in[60]
*172 la_data_in[61]
*173 la_data_in[62]
*174 la_data_in[63]
*175 la_data_in[6]
*176 la_data_in[7]
*177 la_data_in[8]
*178 la_data_in[9]
*179 la_data_out[0]
*180 la_data_out[10]
*181 la_data_out[11]
*182 la_data_out[12]
*183 la_data_out[13]
*184 la_data_out[14]
*185 la_data_out[15]
*186 la_data_out[16]
*187 la_data_out[17]
*188 la_data_out[18]
*189 la_data_out[19]
*190 la_data_out[1]
*191 la_data_out[20]
*192 la_data_out[21]
*193 la_data_out[22]
*194 la_data_out[23]
*195 la_data_out[24]
*196 la_data_out[25]
*197 la_data_out[26]
*198 la_data_out[27]
*199 la_data_out[28]
*200 la_data_out[29]
*201 la_data_out[2]
*202 la_data_out[30]
*203 la_data_out[31]
*204 la_data_out[32]
*205 la_data_out[33]
*206 la_data_out[34]
*207 la_data_out[35]
*208 la_data_out[36]
*209 la_data_out[37]
*210 la_data_out[38]
*211 la_data_out[39]
*212 la_data_out[3]
*213 la_data_out[40]
*214 la_data_out[41]
*215 la_data_out[42]
*216 la_data_out[43]
*217 la_data_out[44]
*218 la_data_out[45]
*219 la_data_out[46]
*220 la_data_out[47]
*221 la_data_out[48]
*222 la_data_out[49]
*223 la_data_out[4]
*224 la_data_out[50]
*225 la_data_out[51]
*226 la_data_out[52]
*227 la_data_out[53]
*228 la_data_out[54]
*229 la_data_out[55]
*230 la_data_out[56]
*231 la_data_out[57]
*232 la_data_out[58]
*233 la_data_out[59]
*234 la_data_out[5]
*235 la_data_out[60]
*236 la_data_out[61]
*237 la_data_out[62]
*238 la_data_out[63]
*239 la_data_out[6]
*240 la_data_out[7]
*241 la_data_out[8]
*242 la_data_out[9]
*243 la_oenb[0]
*244 la_oenb[10]
*245 la_oenb[11]
*246 la_oenb[12]
*247 la_oenb[13]
*248 la_oenb[14]
*249 la_oenb[15]
*250 la_oenb[16]
*251 la_oenb[17]
*252 la_oenb[18]
*253 la_oenb[19]
*254 la_oenb[1]
*255 la_oenb[20]
*256 la_oenb[21]
*257 la_oenb[22]
*258 la_oenb[23]
*259 la_oenb[24]
*260 la_oenb[25]
*261 la_oenb[26]
*262 la_oenb[27]
*263 la_oenb[28]
*264 la_oenb[29]
*265 la_oenb[2]
*266 la_oenb[30]
*267 la_oenb[31]
*268 la_oenb[32]
*269 la_oenb[33]
*270 la_oenb[34]
*271 la_oenb[35]
*272 la_oenb[36]
*273 la_oenb[37]
*274 la_oenb[38]
*275 la_oenb[39]
*276 la_oenb[3]
*277 la_oenb[40]
*278 la_oenb[41]
*279 la_oenb[42]
*280 la_oenb[43]
*281 la_oenb[44]
*282 la_oenb[45]
*283 la_oenb[46]
*284 la_oenb[47]
*285 la_oenb[48]
*286 la_oenb[49]
*287 la_oenb[4]
*288 la_oenb[50]
*289 la_oenb[51]
*290 la_oenb[52]
*291 la_oenb[53]
*292 la_oenb[54]
*293 la_oenb[55]
*294 la_oenb[56]
*295 la_oenb[57]
*296 la_oenb[58]
*297 la_oenb[59]
*298 la_oenb[5]
*299 la_oenb[60]
*300 la_oenb[61]
*301 la_oenb[62]
*302 la_oenb[63]
*303 la_oenb[6]
*304 la_oenb[7]
*305 la_oenb[8]
*306 la_oenb[9]
*307 user_clock2
*308 user_irq[0]
*309 user_irq[1]
*310 user_irq[2]
*313 wb_clk_i
*314 wb_rst_i
*315 wbs_ack_o
*316 wbs_adr_i[0]
*317 wbs_adr_i[10]
*318 wbs_adr_i[11]
*319 wbs_adr_i[12]
*320 wbs_adr_i[13]
*321 wbs_adr_i[14]
*322 wbs_adr_i[15]
*323 wbs_adr_i[16]
*324 wbs_adr_i[17]
*325 wbs_adr_i[18]
*326 wbs_adr_i[19]
*327 wbs_adr_i[1]
*328 wbs_adr_i[20]
*329 wbs_adr_i[21]
*330 wbs_adr_i[22]
*331 wbs_adr_i[23]
*332 wbs_adr_i[24]
*333 wbs_adr_i[25]
*334 wbs_adr_i[26]
*335 wbs_adr_i[27]
*336 wbs_adr_i[28]
*337 wbs_adr_i[29]
*338 wbs_adr_i[2]
*339 wbs_adr_i[30]
*340 wbs_adr_i[31]
*341 wbs_adr_i[3]
*342 wbs_adr_i[4]
*343 wbs_adr_i[5]
*344 wbs_adr_i[6]
*345 wbs_adr_i[7]
*346 wbs_adr_i[8]
*347 wbs_adr_i[9]
*348 wbs_cyc_i
*349 wbs_dat_i[0]
*350 wbs_dat_i[10]
*351 wbs_dat_i[11]
*352 wbs_dat_i[12]
*353 wbs_dat_i[13]
*354 wbs_dat_i[14]
*355 wbs_dat_i[15]
*356 wbs_dat_i[16]
*357 wbs_dat_i[17]
*358 wbs_dat_i[18]
*359 wbs_dat_i[19]
*360 wbs_dat_i[1]
*361 wbs_dat_i[20]
*362 wbs_dat_i[21]
*363 wbs_dat_i[22]
*364 wbs_dat_i[23]
*365 wbs_dat_i[24]
*366 wbs_dat_i[25]
*367 wbs_dat_i[26]
*368 wbs_dat_i[27]
*369 wbs_dat_i[28]
*370 wbs_dat_i[29]
*371 wbs_dat_i[2]
*372 wbs_dat_i[30]
*373 wbs_dat_i[31]
*374 wbs_dat_i[3]
*375 wbs_dat_i[4]
*376 wbs_dat_i[5]
*377 wbs_dat_i[6]
*378 wbs_dat_i[7]
*379 wbs_dat_i[8]
*380 wbs_dat_i[9]
*381 wbs_dat_o[0]
*382 wbs_dat_o[10]
*383 wbs_dat_o[11]
*384 wbs_dat_o[12]
*385 wbs_dat_o[13]
*386 wbs_dat_o[14]
*387 wbs_dat_o[15]
*388 wbs_dat_o[16]
*389 wbs_dat_o[17]
*390 wbs_dat_o[18]
*391 wbs_dat_o[19]
*392 wbs_dat_o[1]
*393 wbs_dat_o[20]
*394 wbs_dat_o[21]
*395 wbs_dat_o[22]
*396 wbs_dat_o[23]
*397 wbs_dat_o[24]
*398 wbs_dat_o[25]
*399 wbs_dat_o[26]
*400 wbs_dat_o[27]
*401 wbs_dat_o[28]
*402 wbs_dat_o[29]
*403 wbs_dat_o[2]
*404 wbs_dat_o[30]
*405 wbs_dat_o[31]
*406 wbs_dat_o[3]
*407 wbs_dat_o[4]
*408 wbs_dat_o[5]
*409 wbs_dat_o[6]
*410 wbs_dat_o[7]
*411 wbs_dat_o[8]
*412 wbs_dat_o[9]
*413 wbs_sel_i[0]
*414 wbs_sel_i[1]
*415 wbs_sel_i[2]
*416 wbs_sel_i[3]
*417 wbs_stb_i
*418 wbs_we_i
*419 cntr_example_1

*PORTS
io_in[0] I
io_in[10] I
io_in[11] I
io_in[12] I
io_in[13] I
io_in[14] I
io_in[15] I
io_in[16] I
io_in[17] I
io_in[18] I
io_in[19] I
io_in[1] I
io_in[20] I
io_in[21] I
io_in[22] I
io_in[23] I
io_in[24] I
io_in[25] I
io_in[26] I
io_in[27] I
io_in[28] I
io_in[29] I
io_in[2] I
io_in[30] I
io_in[31] I
io_in[32] I
io_in[33] I
io_in[34] I
io_in[35] I
io_in[36] I
io_in[37] I
io_in[3] I
io_in[4] I
io_in[5] I
io_in[6] I
io_in[7] I
io_in[8] I
io_in[9] I
io_oeb[0] O
io_oeb[10] O
io_oeb[11] O
io_oeb[12] O
io_oeb[13] O
io_oeb[14] O
io_oeb[15] O
io_oeb[16] O
io_oeb[17] O
io_oeb[18] O
io_oeb[19] O
io_oeb[1] O
io_oeb[20] O
io_oeb[21] O
io_oeb[22] O
io_oeb[23] O
io_oeb[24] O
io_oeb[25] O
io_oeb[26] O
io_oeb[27] O
io_oeb[28] O
io_oeb[29] O
io_oeb[2] O
io_oeb[30] O
io_oeb[31] O
io_oeb[32] O
io_oeb[33] O
io_oeb[34] O
io_oeb[35] O
io_oeb[36] O
io_oeb[37] O
io_oeb[3] O
io_oeb[4] O
io_oeb[5] O
io_oeb[6] O
io_oeb[7] O
io_oeb[8] O
io_oeb[9] O
io_out[0] O
io_out[10] O
io_out[11] O
io_out[12] O
io_out[13] O
io_out[14] O
io_out[15] O
io_out[16] O
io_out[17] O
io_out[18] O
io_out[19] O
io_out[1] O
io_out[20] O
io_out[21] O
io_out[22] O
io_out[23] O
io_out[24] O
io_out[25] O
io_out[26] O
io_out[27] O
io_out[28] O
io_out[29] O
io_out[2] O
io_out[30] O
io_out[31] O
io_out[32] O
io_out[33] O
io_out[34] O
io_out[35] O
io_out[36] O
io_out[37] O
io_out[3] O
io_out[4] O
io_out[5] O
io_out[6] O
io_out[7] O
io_out[8] O
io_out[9] O
la_data_in[0] I
la_data_in[10] I
la_data_in[11] I
la_data_in[12] I
la_data_in[13] I
la_data_in[14] I
la_data_in[15] I
la_data_in[16] I
la_data_in[17] I
la_data_in[18] I
la_data_in[19] I
la_data_in[1] I
la_data_in[20] I
la_data_in[21] I
la_data_in[22] I
la_data_in[23] I
la_data_in[24] I
la_data_in[25] I
la_data_in[26] I
la_data_in[27] I
la_data_in[28] I
la_data_in[29] I
la_data_in[2] I
la_data_in[30] I
la_data_in[31] I
la_data_in[32] I
la_data_in[33] I
la_data_in[34] I
la_data_in[35] I
la_data_in[36] I
la_data_in[37] I
la_data_in[38] I
la_data_in[39] I
la_data_in[3] I
la_data_in[40] I
la_data_in[41] I
la_data_in[42] I
la_data_in[43] I
la_data_in[44] I
la_data_in[45] I
la_data_in[46] I
la_data_in[47] I
la_data_in[48] I
la_data_in[49] I
la_data_in[4] I
la_data_in[50] I
la_data_in[51] I
la_data_in[52] I
la_data_in[53] I
la_data_in[54] I
la_data_in[55] I
la_data_in[56] I
la_data_in[57] I
la_data_in[58] I
la_data_in[59] I
la_data_in[5] I
la_data_in[60] I
la_data_in[61] I
la_data_in[62] I
la_data_in[63] I
la_data_in[6] I
la_data_in[7] I
la_data_in[8] I
la_data_in[9] I
la_data_out[0] O
la_data_out[10] O
la_data_out[11] O
la_data_out[12] O
la_data_out[13] O
la_data_out[14] O
la_data_out[15] O
la_data_out[16] O
la_data_out[17] O
la_data_out[18] O
la_data_out[19] O
la_data_out[1] O
la_data_out[20] O
la_data_out[21] O
la_data_out[22] O
la_data_out[23] O
la_data_out[24] O
la_data_out[25] O
la_data_out[26] O
la_data_out[27] O
la_data_out[28] O
la_data_out[29] O
la_data_out[2] O
la_data_out[30] O
la_data_out[31] O
la_data_out[32] O
la_data_out[33] O
la_data_out[34] O
la_data_out[35] O
la_data_out[36] O
la_data_out[37] O
la_data_out[38] O
la_data_out[39] O
la_data_out[3] O
la_data_out[40] O
la_data_out[41] O
la_data_out[42] O
la_data_out[43] O
la_data_out[44] O
la_data_out[45] O
la_data_out[46] O
la_data_out[47] O
la_data_out[48] O
la_data_out[49] O
la_data_out[4] O
la_data_out[50] O
la_data_out[51] O
la_data_out[52] O
la_data_out[53] O
la_data_out[54] O
la_data_out[55] O
la_data_out[56] O
la_data_out[57] O
la_data_out[58] O
la_data_out[59] O
la_data_out[5] O
la_data_out[60] O
la_data_out[61] O
la_data_out[62] O
la_data_out[63] O
la_data_out[6] O
la_data_out[7] O
la_data_out[8] O
la_data_out[9] O
la_oenb[0] I
la_oenb[10] I
la_oenb[11] I
la_oenb[12] I
la_oenb[13] I
la_oenb[14] I
la_oenb[15] I
la_oenb[16] I
la_oenb[17] I
la_oenb[18] I
la_oenb[19] I
la_oenb[1] I
la_oenb[20] I
la_oenb[21] I
la_oenb[22] I
la_oenb[23] I
la_oenb[24] I
la_oenb[25] I
la_oenb[26] I
la_oenb[27] I
la_oenb[28] I
la_oenb[29] I
la_oenb[2] I
la_oenb[30] I
la_oenb[31] I
la_oenb[32] I
la_oenb[33] I
la_oenb[34] I
la_oenb[35] I
la_oenb[36] I
la_oenb[37] I
la_oenb[38] I
la_oenb[39] I
la_oenb[3] I
la_oenb[40] I
la_oenb[41] I
la_oenb[42] I
la_oenb[43] I
la_oenb[44] I
la_oenb[45] I
la_oenb[46] I
la_oenb[47] I
la_oenb[48] I
la_oenb[49] I
la_oenb[4] I
la_oenb[50] I
la_oenb[51] I
la_oenb[52] I
la_oenb[53] I
la_oenb[54] I
la_oenb[55] I
la_oenb[56] I
la_oenb[57] I
la_oenb[58] I
la_oenb[59] I
la_oenb[5] I
la_oenb[60] I
la_oenb[61] I
la_oenb[62] I
la_oenb[63] I
la_oenb[6] I
la_oenb[7] I
la_oenb[8] I
la_oenb[9] I
user_clock2 I
user_irq[0] O
user_irq[1] O
user_irq[2] O
wb_clk_i I
wb_rst_i I
wbs_ack_o O
wbs_adr_i[0] I
wbs_adr_i[10] I
wbs_adr_i[11] I
wbs_adr_i[12] I
wbs_adr_i[13] I
wbs_adr_i[14] I
wbs_adr_i[15] I
wbs_adr_i[16] I
wbs_adr_i[17] I
wbs_adr_i[18] I
wbs_adr_i[19] I
wbs_adr_i[1] I
wbs_adr_i[20] I
wbs_adr_i[21] I
wbs_adr_i[22] I
wbs_adr_i[23] I
wbs_adr_i[24] I
wbs_adr_i[25] I
wbs_adr_i[26] I
wbs_adr_i[27] I
wbs_adr_i[28] I
wbs_adr_i[29] I
wbs_adr_i[2] I
wbs_adr_i[30] I
wbs_adr_i[31] I
wbs_adr_i[3] I
wbs_adr_i[4] I
wbs_adr_i[5] I
wbs_adr_i[6] I
wbs_adr_i[7] I
wbs_adr_i[8] I
wbs_adr_i[9] I
wbs_cyc_i I
wbs_dat_i[0] I
wbs_dat_i[10] I
wbs_dat_i[11] I
wbs_dat_i[12] I
wbs_dat_i[13] I
wbs_dat_i[14] I
wbs_dat_i[15] I
wbs_dat_i[16] I
wbs_dat_i[17] I
wbs_dat_i[18] I
wbs_dat_i[19] I
wbs_dat_i[1] I
wbs_dat_i[20] I
wbs_dat_i[21] I
wbs_dat_i[22] I
wbs_dat_i[23] I
wbs_dat_i[24] I
wbs_dat_i[25] I
wbs_dat_i[26] I
wbs_dat_i[27] I
wbs_dat_i[28] I
wbs_dat_i[29] I
wbs_dat_i[2] I
wbs_dat_i[30] I
wbs_dat_i[31] I
wbs_dat_i[3] I
wbs_dat_i[4] I
wbs_dat_i[5] I
wbs_dat_i[6] I
wbs_dat_i[7] I
wbs_dat_i[8] I
wbs_dat_i[9] I
wbs_dat_o[0] O
wbs_dat_o[10] O
wbs_dat_o[11] O
wbs_dat_o[12] O
wbs_dat_o[13] O
wbs_dat_o[14] O
wbs_dat_o[15] O
wbs_dat_o[16] O
wbs_dat_o[17] O
wbs_dat_o[18] O
wbs_dat_o[19] O
wbs_dat_o[1] O
wbs_dat_o[20] O
wbs_dat_o[21] O
wbs_dat_o[22] O
wbs_dat_o[23] O
wbs_dat_o[24] O
wbs_dat_o[25] O
wbs_dat_o[26] O
wbs_dat_o[27] O
wbs_dat_o[28] O
wbs_dat_o[29] O
wbs_dat_o[2] O
wbs_dat_o[30] O
wbs_dat_o[31] O
wbs_dat_o[3] O
wbs_dat_o[4] O
wbs_dat_o[5] O
wbs_dat_o[6] O
wbs_dat_o[7] O
wbs_dat_o[8] O
wbs_dat_o[9] O
wbs_sel_i[0] I
wbs_sel_i[1] I
wbs_sel_i[2] I
wbs_sel_i[3] I
wbs_stb_i I
wbs_we_i I

*D_NET *1 0.230216
*CONN
*P io_in[0] I
*I *419:io_in[0] I *D cntr_example
*CAP
1 io_in[0] 0.0497107
2 *419:io_in[0] 0.000778704
3 *1:8 0.045051
4 *1:7 0.0442723
5 *1:5 0.0497107
6 *1:8 *33:14 0.0406921
*RES
1 io_in[0] *1:5 545.265 
2 *1:5 *1:7 4.5 
3 *1:7 *1:8 468.63 
4 *1:8 *419:io_in[0] 12.465 
*END

*D_NET *2 0.122629
*CONN
*P io_in[10] I
*I *419:io_in[10] I *D cntr_example
*CAP
1 io_in[10] 0.00950637
2 *419:io_in[10] 0.000206685
3 *2:11 0.0312473
4 *2:10 0.0310407
5 *2:8 0.020561
6 *2:7 0.020561
7 *2:5 0.00950637
8 *2:11 *10:18 0
*RES
1 io_in[10] *2:5 103.725 
2 *2:5 *2:7 4.5 
3 *2:7 *2:8 205.29 
4 *2:8 *2:10 4.5 
5 *2:10 *2:11 338.13 
6 *2:11 *419:io_in[10] 2.025 
*END

*D_NET *3 0.13412
*CONN
*P io_in[11] I
*I *419:io_in[11] I *D cntr_example
*CAP
1 io_in[11] 0.000637361
2 *419:io_in[11] 9.64532e-05
3 *3:11 0.0400061
4 *3:10 0.0399097
5 *3:8 0.0264165
6 *3:7 0.0270539
*RES
1 io_in[11] *3:7 11.025 
2 *3:7 *3:8 263.97 
3 *3:8 *3:10 4.5 
4 *3:10 *3:11 435.33 
5 *3:11 *419:io_in[11] 0.945 
*END

*D_NET *4 0.151942
*CONN
*P io_in[12] I
*I *419:io_in[12] I *D cntr_example
*CAP
1 io_in[12] 0.000215438
2 *419:io_in[12] 0.000151569
3 *4:19 0.0301307
4 *4:18 0.0299791
5 *4:16 0.035145
6 *4:15 0.035145
7 *4:13 0.0104798
8 *4:11 0.0106952
*RES
1 io_in[12] *4:11 2.115 
2 *4:11 *4:13 114.57 
3 *4:13 *4:15 4.5 
4 *4:15 *4:16 351.09 
5 *4:16 *4:18 4.5 
6 *4:18 *4:19 327.33 
7 *4:19 *419:io_in[12] 1.485 
*END

*D_NET *5 0.155894
*CONN
*P io_in[13] I
*I *419:io_in[13] I *D cntr_example
*CAP
1 io_in[13] 0.000145659
2 *419:io_in[13] 0.000819294
3 *5:16 0.0335161
4 *5:15 0.0326968
5 *5:13 0.0442855
6 *5:11 0.0444312
7 *419:io_in[13] *95:10 0
*RES
1 io_in[13] *5:11 1.575 
2 *5:11 *5:13 484.47 
3 *5:13 *5:15 4.5 
4 *5:15 *5:16 326.79 
5 *5:16 *419:io_in[13] 16.155 
*END

*D_NET *6 0.226915
*CONN
*P io_in[14] I
*I *419:io_in[14] I *D cntr_example
*CAP
1 io_in[14] 0.00397136
2 *419:io_in[14] 0.000810399
3 *6:12 0.0503836
4 *6:11 0.0495732
5 *6:9 0.0349184
6 *6:7 0.0388898
7 *419:io_in[14] *78:10 0.0241841
8 *419:io_in[14] *81:8 0.0241841
*RES
1 io_in[14] *6:7 43.425 
2 *6:7 *6:9 382.14 
3 *6:9 *6:11 4.5 
4 *6:11 *6:12 494.73 
5 *6:12 *419:io_in[14] 47.925 
*END

*D_NET *7 0.175101
*CONN
*P io_in[15] I
*I *419:io_in[15] I *D cntr_example
*CAP
1 io_in[15] 0.00433039
2 *419:io_in[15] 4.98556e-05
3 *7:12 0.0389174
4 *7:11 0.0388676
5 *7:9 0.0443029
6 *7:7 0.0486333
*RES
1 io_in[15] *7:7 43.245 
2 *7:7 *7:9 442.8 
3 *7:9 *7:11 4.5 
4 *7:11 *7:12 423.27 
5 *7:12 *419:io_in[15] 0.405 
*END

*D_NET *8 0.387415
*CONN
*P io_in[16] I
*I *419:io_in[16] I *D cntr_example
*CAP
1 io_in[16] 0.000164983
2 *419:io_in[16] 0.000297943
3 *8:19 0.00312867
4 *8:18 0.00283073
5 *8:16 0.0234982
6 *8:15 0.0234982
7 *8:13 0.044944
8 *8:11 0.045109
9 *419:io_in[16] *93:7 0
10 *8:16 *9:16 0.211066
11 *8:16 *25:19 0.00490286
12 *8:19 *419:io_in[17] 0.0200699
13 *8:19 *12:22 0.0065672
14 *8:19 *87:8 0.00133799
*RES
1 io_in[16] *8:11 1.935 
2 *8:11 *8:13 449.37 
3 *8:13 *8:15 4.5 
4 *8:15 *8:16 413.73 
5 *8:16 *8:18 4.5 
6 *8:18 *8:19 48.87 
7 *8:19 *419:io_in[16] 7.425 
*END

*D_NET *9 0.371004
*CONN
*P io_in[17] I
*I *419:io_in[17] I *D cntr_example
*CAP
1 io_in[17] 0.000291323
2 *419:io_in[17] 0.00067801
3 *9:16 0.0161365
4 *9:15 0.0154585
5 *9:13 0.0449459
6 *9:11 0.0452372
7 *419:io_in[17] *80:8 0.013564
8 *419:io_in[17] *87:8 0.00220953
9 *9:16 *11:21 0.00134701
10 *9:16 *100:11 0
11 *8:16 *9:16 0.211066
12 *8:19 *419:io_in[17] 0.0200699
*RES
1 io_in[17] *9:11 3.015 
2 *9:11 *9:13 449.19 
3 *9:13 *9:15 4.5 
4 *9:15 *9:16 305.55 
5 *9:16 *419:io_in[17] 41.355 
*END

*D_NET *10 0.13496
*CONN
*P io_in[18] I
*I *419:io_in[18] I *D cntr_example
*CAP
1 io_in[18] 0.000104982
2 *419:io_in[18] 0.000901483
3 *10:22 0.00560789
4 *10:21 0.00784391
5 *10:18 0.00679271
6 *10:13 0.0551223
7 *10:11 0.0515721
8 *419:io_in[18] *112:11 0.00701483
9 *10:22 *33:11 0
10 *2:11 *10:18 0
*RES
1 io_in[18] *10:11 1.395 
2 *10:11 *10:13 514.17 
3 *10:13 *10:18 48.33 
4 *10:18 *10:21 35.55 
5 *10:21 *10:22 51.39 
6 *10:22 *419:io_in[18] 23.175 
*END

*D_NET *11 0.19159
*CONN
*P io_in[19] I
*I *419:io_in[19] I *D cntr_example
*CAP
1 io_in[19] 0.000224243
2 *419:io_in[19] 0.000435652
3 *11:27 0.00132272
4 *11:25 0.00279711
5 *11:21 0.00457209
6 *11:13 0.0473985
7 *11:11 0.0449607
8 *419:io_in[19] *78:10 0.00976066
9 *419:io_in[19] *111:12 0.00976066
10 *11:13 *419:io_in[6] 0.0025164
11 *11:21 *21:16 0.00102881
12 *11:21 *96:7 0
13 *11:21 *100:11 0.00042664
14 *11:25 *106:8 2.30159e-05
15 *11:25 *106:10 0.000110476
16 *11:27 *419:io_in[20] 0.000276191
17 *11:27 *106:10 0.0321609
18 *11:27 *418:11 0.0324678
19 *9:16 *11:21 0.00134701
*RES
1 io_in[19] *11:11 2.475 
2 *11:11 *11:13 448.83 
3 *11:13 *11:21 44.28 
4 *11:21 *11:25 19.44 
5 *11:25 *11:27 51.48 
6 *11:27 *419:io_in[19] 26.145 
*END

*D_NET *12 0.213106
*CONN
*P io_in[1] I
*I *419:io_in[1] I *D cntr_example
*CAP
1 io_in[1] 0.000280649
2 *419:io_in[1] 0.000267769
3 *12:22 0.00198058
4 *12:21 0.00180706
5 *12:16 0.0348826
6 *12:15 0.0347883
7 *12:13 0.0490964
8 *12:11 0.0493771
9 *12:16 *92:9 0.00153439
10 *12:16 *112:10 0
11 *12:21 *92:10 0.00118123
12 *12:22 *87:8 0.00881765
13 *12:22 *109:8 0.00196402
14 *12:22 *112:10 0.0205609
15 *8:19 *12:22 0.0065672
*RES
1 io_in[1] *12:11 2.655 
2 *12:11 *12:13 538.47 
3 *12:13 *12:15 4.5 
4 *12:15 *12:16 348.39 
5 *12:16 *12:21 10.71 
6 *12:21 *12:22 53.91 
7 *12:22 *419:io_in[1] 7.245 
*END

*D_NET *13 0.188296
*CONN
*P io_in[20] I
*I *419:io_in[20] I *D cntr_example
*CAP
1 io_in[20] 0.00432675
2 *419:io_in[20] 0.000133675
3 *13:12 0.0048312
4 *13:11 0.00469752
5 *13:9 0.050549
6 *13:7 0.0548758
7 *13:7 *90:11 0
8 *13:9 *90:11 0
9 *13:12 *18:11 0.00547086
10 *13:12 *37:19 0.0320172
11 *13:12 *83:10 0.00217594
12 *13:12 *98:8 0.0204539
13 *13:12 *111:10 0.00113147
14 *13:12 *111:12 0.00735674
15 *13:12 *314:8 0
16 *11:27 *419:io_in[20] 0.000276191
*RES
1 io_in[20] *13:7 43.245 
2 *13:7 *13:9 504.54 
3 *13:9 *13:11 4.5 
4 *13:11 *13:12 110.61 
5 *13:12 *419:io_in[20] 6.525 
*END

*D_NET *14 0.114171
*CONN
*P io_in[21] I
*I *419:io_in[21] I *D cntr_example
*CAP
1 io_in[21] 0.00231957
2 *419:io_in[21] 8.3608e-05
3 *14:14 0.00989592
4 *14:13 0.00981231
5 *14:11 0.0448698
6 *14:10 0.0471894
7 *14:10 *90:14 0
*RES
1 io_in[21] *14:10 32.715 
2 *14:10 *14:11 448.29 
3 *14:11 *14:13 4.5 
4 *14:13 *14:14 106.47 
5 *14:14 *419:io_in[21] 0.945 
*END

*D_NET *15 0.318751
*CONN
*P io_in[22] I
*I *419:io_in[22] I *D cntr_example
*CAP
1 io_in[22] 0.000290594
2 *419:io_in[22] 0.000942352
3 *15:16 0.0156072
4 *15:15 0.0146649
5 *15:13 0.0440992
6 *15:11 0.0443898
7 *15:16 *16:16 0.198757
*RES
1 io_in[22] *15:11 3.015 
2 *15:11 *15:13 440.91 
3 *15:13 *15:15 4.5 
4 *15:15 *15:16 287.73 
5 *15:16 *419:io_in[22] 13.545 
*END

*D_NET *16 0.575907
*CONN
*P io_in[23] I
*I *419:io_in[23] I *D cntr_example
*CAP
1 io_in[23] 0.000104982
2 *419:io_in[23] 0.00159867
3 *16:16 0.0112534
4 *16:15 0.00965474
5 *16:13 0.044111
6 *16:11 0.044216
7 *16:16 *84:8 0.0215729
8 *16:16 *97:8 0.244638
9 *15:16 *16:16 0.198757
*RES
1 io_in[23] *16:11 1.395 
2 *16:11 *16:13 441.09 
3 *16:13 *16:15 4.5 
4 *16:15 *16:16 404.91 
5 *16:16 *419:io_in[23] 29.025 
*END

*D_NET *17 0.1706
*CONN
*P io_in[24] I
*I *419:io_in[24] I *D cntr_example
*CAP
1 io_in[24] 0.0159036
2 *419:io_in[24] 3.5832e-05
3 *17:11 0.0231823
4 *17:10 0.0231465
5 *17:8 0.0462141
6 *17:7 0.0462141
7 *17:5 0.0159036
*RES
1 io_in[24] *17:5 173.565 
2 *17:5 *17:7 4.5 
3 *17:7 *17:8 461.79 
4 *17:8 *17:10 4.5 
5 *17:10 *17:11 252.27 
6 *17:11 *419:io_in[24] 0.405 
*END

*D_NET *18 0.431293
*CONN
*P io_in[25] I
*I *419:io_in[25] I *D cntr_example
*CAP
1 io_in[25] 0.00112395
2 *419:io_in[25] 0.000246763
3 *18:11 0.0266658
4 *18:10 0.026419
5 *18:8 0.0466381
6 *18:7 0.047762
7 *18:11 *98:8 0.276966
8 *18:11 *102:8 0
9 *18:11 *314:8 0
10 *13:12 *18:11 0.00547086
*RES
1 io_in[25] *18:7 16.065 
2 *18:7 *18:8 466.11 
3 *18:8 *18:10 4.5 
4 *18:10 *18:11 451.71 
5 *18:11 *419:io_in[25] 6.885 
*END

*D_NET *19 0.155568
*CONN
*P io_in[26] I
*I *419:io_in[26] I *D cntr_example
*CAP
1 io_in[26] 0.00246115
2 *419:io_in[26] 0.000226936
3 *19:19 0.0369523
4 *19:18 0.0367253
5 *19:16 0.0383707
6 *19:15 0.0408318
*RES
1 io_in[26] *19:15 30.825 
2 *19:15 *19:16 383.49 
3 *19:16 *19:18 4.5 
4 *19:18 *19:19 400.77 
5 *19:19 *419:io_in[26] 2.565 
*END

*D_NET *20 0.167547
*CONN
*P io_in[27] I
*I *419:io_in[27] I *D cntr_example
*CAP
1 io_in[27] 0.000310538
2 *419:io_in[27] 0.000189846
3 *20:16 0.0300421
4 *20:15 0.0298523
5 *20:13 0.0534211
6 *20:11 0.0537316
7 *20:16 *21:16 0
*RES
1 io_in[27] *20:11 2.835 
2 *20:11 *20:13 523.35 
3 *20:13 *20:15 4.5 
4 *20:15 *20:16 297.63 
5 *20:16 *419:io_in[27] 6.525 
*END

*D_NET *21 0.157778
*CONN
*P io_in[28] I
*I *419:io_in[28] I *D cntr_example
*CAP
1 io_in[28] 0.000167681
2 *419:io_in[28] 0.0019207
3 *21:16 0.0188825
4 *21:15 0.0169618
5 *21:13 0.0532791
6 *21:11 0.0534468
7 *419:io_in[28] *103:8 0.012091
8 *11:21 *21:16 0.00102881
9 *20:16 *21:16 0
*RES
1 io_in[28] *21:11 1.755 
2 *21:11 *21:13 521.91 
3 *21:13 *21:15 4.5 
4 *21:15 *21:16 173.61 
5 *21:16 *419:io_in[28] 40.185 
*END

*D_NET *22 0.112211
*CONN
*P io_in[29] I
*I *419:io_in[29] I *D cntr_example
*CAP
1 io_in[29] 0.0322452
2 *419:io_in[29] 0.000131384
3 *22:11 0.00702164
4 *22:10 0.00689026
5 *22:8 0.0168384
6 *22:7 0.0168384
7 *22:5 0.0322452
*RES
1 io_in[29] *22:5 351.765 
2 *22:5 *22:7 4.5 
3 *22:7 *22:8 167.49 
4 *22:8 *22:10 4.5 
5 *22:10 *22:11 74.07 
6 *22:11 *419:io_in[29] 1.485 
*END

*D_NET *23 0.153475
*CONN
*P io_in[2] I
*I *419:io_in[2] I *D cntr_example
*CAP
1 io_in[2] 0.000215438
2 *419:io_in[2] 8.3608e-05
3 *23:19 0.0303443
4 *23:18 0.0302607
5 *23:16 0.0359653
6 *23:15 0.0359653
7 *23:13 0.0102125
8 *23:11 0.0104279
*RES
1 io_in[2] *23:11 2.115 
2 *23:11 *23:13 111.87 
3 *23:13 *23:15 4.5 
4 *23:15 *23:16 359.19 
5 *23:16 *23:18 4.5 
6 *23:18 *23:19 330.03 
7 *23:19 *419:io_in[2] 0.945 
*END

*D_NET *24 0.0907669
*CONN
*P io_in[30] I
*I *419:io_in[30] I *D cntr_example
*CAP
1 io_in[30] 0.000237175
2 *419:io_in[30] 0.00257098
3 *24:13 0.044307
4 *24:11 0.0419732
5 *419:io_in[30] *94:10 0.00167858
*RES
1 io_in[30] *24:11 2.295 
2 *24:11 *24:13 454.41 
3 *24:13 *419:io_in[30] 39.645 
*END

*D_NET *25 0.0990858
*CONN
*P io_in[31] I
*I *419:io_in[31] I *D cntr_example
*CAP
1 io_in[31] 0.00010158
2 *419:io_in[31] 0
3 *25:19 0.0142503
4 *25:18 0.0142503
5 *25:16 0.00439405
6 *25:13 0.0327396
7 *25:11 0.0284471
8 *8:16 *25:19 0.00490286
*RES
1 io_in[31] *25:11 1.215 
2 *25:11 *25:13 308.61 
3 *25:13 *25:16 48.15 
4 *25:16 *25:18 4.5 
5 *25:18 *25:19 177.39 
6 *25:19 *419:io_in[31] 4.5 
*END

*D_NET *26 0.108958
*CONN
*P io_in[32] I
*I *419:io_in[32] I *D cntr_example
*CAP
1 io_in[32] 0.00165081
2 *419:io_in[32] 0.000236262
3 *26:11 0.0419841
4 *26:10 0.0417479
5 *26:8 0.0108439
6 *26:7 0.0124947
*RES
1 io_in[32] *26:7 21.465 
2 *26:7 *26:8 108.27 
3 *26:8 *26:10 4.5 
4 *26:10 *26:11 408.87 
5 *26:11 *419:io_in[32] 2.565 
*END

*D_NET *27 0.106971
*CONN
*P io_in[33] I
*I *419:io_in[33] I *D cntr_example
*CAP
1 io_in[33] 0.000167681
2 *419:io_in[33] 0.000147297
3 *27:16 0.00879229
4 *27:15 0.00864499
5 *27:13 0.0445254
6 *27:11 0.0446931
*RES
1 io_in[33] *27:11 1.755 
2 *27:11 *27:13 485.55 
3 *27:13 *27:15 4.5 
4 *27:15 *27:16 86.13 
5 *27:16 *419:io_in[33] 1.485 
*END

*D_NET *28 0.187836
*CONN
*P io_in[34] I
*I *419:io_in[34] I *D cntr_example
*CAP
1 io_in[34] 0.0482515
2 *419:io_in[34] 0.000503307
3 *28:8 0.0201651
4 *28:7 0.0196618
5 *28:5 0.0482515
6 *28:8 *103:8 0.0510032
*RES
1 io_in[34] *28:5 526.365 
2 *28:5 *28:7 4.5 
3 *28:7 *28:8 228.87 
4 *28:8 *419:io_in[34] 9.585 
*END

*D_NET *29 0.161537
*CONN
*P io_in[35] I
*I *419:io_in[35] I *D cntr_example
*CAP
1 io_in[35] 0.000237175
2 *419:io_in[35] 0.00123489
3 *29:16 0.0318445
4 *29:15 0.0306096
5 *29:13 0.0486868
6 *29:11 0.048924
*RES
1 io_in[35] *29:11 2.295 
2 *29:11 *29:13 531.45 
3 *29:13 *29:15 4.5 
4 *29:15 *29:16 305.19 
5 *29:16 *419:io_in[35] 17.235 
*END

*D_NET *30 0.152436
*CONN
*P io_in[36] I
*I *419:io_in[36] I *D cntr_example
*CAP
1 io_in[36] 0.00010158
2 *419:io_in[36] 0.000200859
3 *30:22 0.0268464
4 *30:21 0.0266456
5 *30:19 0.0164879
6 *30:18 0.0190496
7 *30:13 0.032782
8 *30:11 0.0303219
*RES
1 io_in[36] *30:11 1.215 
2 *30:11 *30:13 330.21 
3 *30:13 *30:18 34.65 
4 *30:18 *30:19 179.73 
5 *30:19 *30:21 4.5 
6 *30:21 *30:22 265.77 
7 *30:22 *419:io_in[36] 2.025 
*END

*D_NET *31 0.469223
*CONN
*P io_in[37] I
*I *419:io_in[37] I *D cntr_example
*CAP
1 io_in[37] 0.00293654
2 *419:io_in[37] 0.000240577
3 *31:19 0.0240899
4 *31:18 0.0238493
5 *31:16 0.0459751
6 *31:15 0.0489116
7 *31:16 *348:13 0
8 *31:19 *100:11 0.32322
*RES
1 io_in[37] *31:15 35.145 
2 *31:15 *31:16 459.27 
3 *31:16 *31:18 4.5 
4 *31:18 *31:19 467.91 
5 *31:19 *419:io_in[37] 6.705 
*END

*D_NET *32 0.140639
*CONN
*P io_in[3] I
*I *419:io_in[3] I *D cntr_example
*CAP
1 io_in[3] 0.00211656
2 *419:io_in[3] 0.000254422
3 *32:14 0.0203856
4 *32:13 0.0201312
5 *32:11 0.0478172
6 *32:10 0.0499337
*RES
1 io_in[3] *32:10 30.375 
2 *32:10 *32:11 523.89 
3 *32:11 *32:13 4.5 
4 *32:13 *32:14 200.97 
5 *32:14 *419:io_in[3] 2.565 
*END

*D_NET *33 0.246635
*CONN
*P io_in[4] I
*I *419:io_in[4] I *D cntr_example
*CAP
1 io_in[4] 0.000637361
2 *419:io_in[4] 0.000823138
3 *33:14 0.00612722
4 *33:13 0.00530408
5 *33:11 0.0442478
6 *33:10 0.0442478
7 *33:8 0.0152071
8 *33:7 0.0158445
9 *33:11 *103:13 0.00043208
10 *33:11 *106:13 0.0713088
11 *33:11 *112:11 0.00176251
12 *1:8 *33:14 0.0406921
13 *10:22 *33:11 0
*RES
1 io_in[4] *33:7 11.025 
2 *33:7 *33:8 151.83 
3 *33:8 *33:10 4.5 
4 *33:10 *33:11 539.01 
5 *33:11 *33:13 4.5 
6 *33:13 *33:14 79.11 
7 *33:14 *419:io_in[4] 12.645 
*END

*D_NET *34 0.112723
*CONN
*P io_in[5] I
*I *419:io_in[5] I *D cntr_example
*CAP
1 io_in[5] 0.0326209
2 *419:io_in[5] 4.01718e-05
3 *34:14 0.00530482
4 *34:13 0.00526465
5 *34:11 0.0150567
6 *34:10 0.0184358
7 *34:5 0.0360001
*RES
1 io_in[5] *34:5 357.525 
2 *34:5 *34:10 42.75 
3 *34:10 *34:11 147.15 
4 *34:11 *34:13 4.5 
5 *34:13 *34:14 52.47 
6 *34:14 *419:io_in[5] 0.405 
*END

*D_NET *35 0.110868
*CONN
*P io_in[6] I
*I *419:io_in[6] I *D cntr_example
*CAP
1 io_in[6] 0.000280649
2 *419:io_in[6] 0.000326592
3 *35:19 0.0230314
4 *35:18 0.0227048
5 *35:16 0.0124987
6 *35:15 0.0124987
7 *35:13 0.0183648
8 *35:11 0.0186455
9 *35:19 *113:8 0
10 *11:13 *419:io_in[6] 0.0025164
*RES
1 io_in[6] *35:11 2.655 
2 *35:11 *35:13 200.97 
3 *35:13 *35:15 4.5 
4 *35:15 *35:16 124.29 
5 *35:16 *35:18 4.5 
6 *35:18 *35:19 247.23 
7 *35:19 *419:io_in[6] 9.225 
*END

*D_NET *36 0.0874359
*CONN
*P io_in[7] I
*I *419:io_in[7] I *D cntr_example
*CAP
1 io_in[7] 0.000215438
2 *419:io_in[7] 0.000182709
3 *36:19 0.0100195
4 *36:18 0.0125685
5 *36:13 0.033483
6 *36:11 0.0309668
*RES
1 io_in[7] *36:11 2.115 
2 *36:11 *36:13 335.97 
3 *36:13 *36:18 36.09 
4 *36:18 *36:19 105.93 
5 *36:19 *419:io_in[7] 2.025 
*END

*D_NET *37 0.143869
*CONN
*P io_in[8] I
*I *419:io_in[8] I *D cntr_example
*CAP
1 io_in[8] 0.000145659
2 *419:io_in[8] 0.000303426
3 *37:19 0.00390149
4 *37:18 0.00359807
5 *37:16 0.0108483
6 *37:15 0.0108483
7 *37:13 0.0386887
8 *37:11 0.0388344
9 *37:13 *82:8 0
10 *37:13 *84:8 0
11 *37:19 *83:10 0.00468345
12 *13:12 *37:19 0.0320172
*RES
1 io_in[8] *37:11 1.575 
2 *37:11 *37:13 422.37 
3 *37:13 *37:15 4.5 
4 *37:15 *37:16 107.55 
5 *37:16 *37:18 4.5 
6 *37:18 *37:19 66.69 
7 *37:19 *419:io_in[8] 7.515 
*END

*D_NET *38 0.112484
*CONN
*P io_in[9] I
*I *419:io_in[9] I *D cntr_example
*CAP
1 io_in[9] 0.0039856
2 *419:io_in[9] 0.00183091
3 *38:12 0.0087369
4 *38:11 0.00690599
5 *38:9 0.0355307
6 *38:7 0.0395163
7 *419:io_in[9] *113:8 0.0159776
*RES
1 io_in[9] *38:7 43.425 
2 *38:7 *38:9 387.54 
3 *38:9 *38:11 4.5 
4 *38:11 *38:12 68.85 
5 *38:12 *419:io_in[9] 38.295 
*END

*D_NET *77 0.172323
*CONN
*P io_out[0] O
*I *419:io_out[0] O *D cntr_example
*CAP
1 io_out[0] 0.000332275
2 *419:io_out[0] 0.000673246
3 *77:16 0.0469441
4 *77:15 0.0466118
5 *77:13 0.0384387
6 *77:12 0.0391119
7 *77:12 *314:8 0.000211332
8 *77:13 *108:7 0
*RES
1 *419:io_out[0] *77:12 15.885 