*SPEF "ieee 1481-1999"
*DESIGN "cntr_example"
*DATE "11:11:11 Fri 11 11, 1111"
*VENDOR "OpenRCX"
*PROGRAM "Parallel Extraction"
*VERSION "1.0"
*DESIGN_FLOW "NAME_SCOPE LOCAL" "PIN_CAP NONE"
*DIVIDER /
*DELIMITER :
*BUS_DELIMITER []
*T_UNIT 1 NS
*C_UNIT 1 PF
*R_UNIT 1 OHM
*L_UNIT 1 HENRY

*NAME_MAP
*1 io_in[0]
*2 io_in[10]
*3 io_in[11]
*4 io_in[12]
*5 io_in[13]
*6 io_in[14]
*7 io_in[15]
*8 io_in[16]
*9 io_in[17]
*10 io_in[18]
*11 io_in[19]
*12 io_in[1]
*13 io_in[20]
*14 io_in[21]
*15 io_in[22]
*16 io_in[23]
*17 io_in[24]
*18 io_in[25]
*19 io_in[26]
*20 io_in[27]
*21 io_in[28]
*22 io_in[29]
*23 io_in[2]
*24 io_in[30]
*25 io_in[31]
*26 io_in[32]
*27 io_in[33]
*28 io_in[34]
*29 io_in[35]
*30 io_in[36]
*31 io_in[37]
*32 io_in[3]
*33 io_in[4]
*34 io_in[5]
*35 io_in[6]
*36 io_in[7]
*37 io_in[8]
*38 io_in[9]
*39 io_out[0]
*40 io_out[10]
*41 io_out[11]
*42 io_out[12]
*43 io_out[13]
*44 io_out[14]
*45 io_out[15]
*46 io_out[16]
*47 io_out[17]
*48 io_out[18]
*49 io_out[19]
*50 io_out[1]
*51 io_out[20]
*52 io_out[21]
*53 io_out[22]
*54 io_out[23]
*55 io_out[24]
*56 io_out[25]
*57 io_out[26]
*58 io_out[27]
*59 io_out[28]
*60 io_out[29]
*61 io_out[2]
*62 io_out[30]
*63 io_out[31]
*64 net69
*65 net70
*66 net71
*67 net72
*68 net73
*69 net74
*70 io_out[3]
*71 io_out[4]
*72 io_out[5]
*73 io_out[6]
*74 io_out[7]
*75 io_out[8]
*76 io_out[9]
*79 wb_clk_i
*80 wb_rst_i
*81 wbs_cyc_i
*82 wbs_stb_i
*83 wbs_we_i
*84 _000_
*85 _001_
*86 _002_
*87 _003_
*88 _004_
*89 _005_
*90 _006_
*91 _007_
*92 _008_
*93 _009_
*94 _010_
*95 _011_
*96 _012_
*97 _013_
*98 _014_
*99 _015_
*100 _016_
*101 _017_
*102 _018_
*103 _019_
*104 _020_
*105 _021_
*106 _022_
*107 _023_
*108 _024_
*109 _025_
*110 _026_
*111 _027_
*112 _028_
*113 _029_
*114 _030_
*115 _031_
*116 _032_
*117 _033_
*118 _034_
*119 _035_
*120 _036_
*121 _037_
*122 _038_
*123 _039_
*124 _040_
*125 _041_
*126 _042_
*127 _043_
*128 _044_
*129 _045_
*130 _046_
*131 _047_
*132 _048_
*133 _049_
*134 _050_
*135 _051_
*136 _052_
*137 _053_
*138 _054_
*139 _055_
*140 _056_
*141 _057_
*142 _058_
*143 _059_
*144 _060_
*145 _061_
*146 _062_
*147 _063_
*148 _064_
*149 _065_
*150 _066_
*151 _067_
*152 _068_
*153 _069_
*154 _070_
*155 _071_
*156 _072_
*157 _073_
*158 _074_
*159 _075_
*160 _076_
*161 _077_
*162 _078_
*163 _079_
*164 _080_
*165 _081_
*166 _082_
*167 _083_
*168 _084_
*169 _085_
*170 _086_
*171 _087_
*172 _088_
*173 _089_
*174 _090_
*175 _091_
*176 _092_
*177 _093_
*178 _094_
*179 _095_
*180 _096_
*181 _097_
*182 _098_
*183 _099_
*184 _100_
*185 _101_
*186 _102_
*187 _103_
*188 _104_
*189 _105_
*190 _106_
*191 _107_
*192 _108_
*193 _109_
*194 _110_
*195 _111_
*196 _112_
*197 _113_
*198 _114_
*199 _115_
*200 _116_
*201 _117_
*202 _118_
*203 _119_
*204 _120_
*205 _121_
*206 _122_
*207 _123_
*208 _124_
*209 _125_
*210 _126_
*211 _127_
*212 _128_
*213 _129_
*214 _130_
*215 _131_
*216 _132_
*217 _133_
*218 _134_
*219 _135_
*220 _136_
*221 _137_
*222 _138_
*223 _139_
*224 _140_
*225 _141_
*226 _142_
*227 _143_
*228 _144_
*229 _145_
*230 _146_
*231 _147_
*232 _148_
*233 _149_
*234 _150_
*235 _151_
*236 _152_
*237 _153_
*238 _154_
*239 _155_
*240 _156_
*241 _157_
*242 _158_
*243 _159_
*244 _160_
*245 _161_
*246 _162_
*247 _163_
*248 _164_
*249 _165_
*250 _166_
*251 _167_
*252 _168_
*253 _169_
*254 _170_
*255 _171_
*256 _172_
*257 _173_
*258 _174_
*259 _175_
*260 _176_
*261 _177_
*262 _178_
*263 _179_
*264 _180_
*265 _181_
*266 _182_
*267 _183_
*268 _184_
*269 _185_
*270 _186_
*271 _187_
*272 _188_
*273 _189_
*274 _190_
*275 _191_
*276 _192_
*277 _193_
*278 _194_
*279 _195_
*280 _196_
*281 _197_
*282 _198_
*283 _199_
*284 _200_
*285 _201_
*286 _202_
*287 _203_
*288 _204_
*289 _205_
*290 _206_
*291 _207_
*292 _208_
*293 _209_
*294 _210_
*295 _211_
*296 _212_
*297 _213_
*298 _214_
*299 _215_
*300 _216_
*301 _217_
*302 _218_
*303 _219_
*304 _220_
*305 _221_
*306 _222_
*307 _223_
*308 _224_
*309 _225_
*310 _226_
*311 _227_
*312 _228_
*313 _229_
*314 _230_
*315 _231_
*316 _232_
*317 _233_
*318 _234_
*319 _235_
*320 _236_
*321 _237_
*322 _238_
*323 _239_
*324 _240_
*325 _241_
*326 _242_
*327 _243_
*328 _244_
*329 _245_
*330 _246_
*331 _247_
*332 _248_
*333 _249_
*334 _250_
*335 _251_
*336 _252_
*337 clknet_0_wb_clk_i
*338 clknet_2_0__leaf_wb_clk_i
*339 clknet_2_1__leaf_wb_clk_i
*340 clknet_2_2__leaf_wb_clk_i
*341 clknet_2_3__leaf_wb_clk_i
*342 net1
*343 net10
*344 net11
*345 net12
*346 net13
*347 net14
*348 net15
*349 net16
*350 net17
*351 net18
*352 net19
*353 net2
*354 net20
*355 net21
*356 net22
*357 net23
*358 net24
*359 net25
*360 net26
*361 net27
*362 net28
*363 net29
*364 net3
*365 net30
*366 net31
*367 net32
*368 net33
*369 net34
*370 net35
*371 net36
*372 net37
*373 net38
*374 net39
*375 net4
*376 net40
*377 net41
*378 net42
*379 net43
*380 net44
*381 net45
*382 net46
*383 net47
*384 net48
*385 net49
*386 net5
*387 net50
*388 net51
*389 net52
*390 net53
*391 net54
*392 net55
*393 net56
*394 net57
*395 net58
*396 net59
*397 net6
*398 net60
*399 net61
*400 net62
*401 net63
*402 net64
*403 net65
*404 net66
*405 net67
*406 net68
*407 net7
*408 net8
*409 net9
*410 ANTENNA__253__A1
*411 ANTENNA__253__A2
*412 ANTENNA__254__A1
*413 ANTENNA__254__A2
*414 ANTENNA__255__A1
*415 ANTENNA__255__A2
*416 ANTENNA__255__A3
*417 ANTENNA__256__I
*418 ANTENNA__257__I
*419 ANTENNA__258__A1
*420 ANTENNA__258__A2
*421 ANTENNA__259__A1
*422 ANTENNA__259__A2
*423 ANTENNA__259__A3
*424 ANTENNA__259__A4
*425 ANTENNA__260__A1
*426 ANTENNA__260__A3
*427 ANTENNA__260__A4
*428 ANTENNA__261__A2
*429 ANTENNA__261__A3
*430 ANTENNA__262__A1
*431 ANTENNA__262__A2
*432 ANTENNA__262__A3
*433 ANTENNA__262__A4
*434 ANTENNA__263__I
*435 ANTENNA__264__A1
*436 ANTENNA__264__A2
*437 ANTENNA__264__B
*438 ANTENNA__265__A1
*439 ANTENNA__265__A2
*440 ANTENNA__265__A3
*441 ANTENNA__266__A1
*442 ANTENNA__267__A1
*443 ANTENNA__268__A1
*444 ANTENNA__268__A2
*445 ANTENNA__268__B1
*446 ANTENNA__268__B2
*447 ANTENNA__269__A1
*448 ANTENNA__269__A2
*449 ANTENNA__270__A1
*450 ANTENNA__271__A1
*451 ANTENNA__271__A2
*452 ANTENNA__272__I
*453 ANTENNA__273__A1
*454 ANTENNA__273__A2
*455 ANTENNA__273__B2
*456 ANTENNA__274__I
*457 ANTENNA__275__A1
*458 ANTENNA__275__A2
*459 ANTENNA__275__A3
*460 ANTENNA__277__A1
*461 ANTENNA__278__A1
*462 ANTENNA__278__A2
*463 ANTENNA__279__A1
*464 ANTENNA__279__B2
*465 ANTENNA__280__I
*466 ANTENNA__281__I
*467 ANTENNA__282__A1
*468 ANTENNA__282__A2
*469 ANTENNA__284__A1
*470 ANTENNA__285__A1
*471 ANTENNA__285__A2
*472 ANTENNA__286__A1
*473 ANTENNA__286__B2
*474 ANTENNA__287__A1
*475 ANTENNA__287__A2
*476 ANTENNA__287__A3
*477 ANTENNA__287__A4
*478 ANTENNA__288__A1
*479 ANTENNA__288__A2
*480 ANTENNA__289__A1
*481 ANTENNA__290__A1
*482 ANTENNA__290__A2
*483 ANTENNA__291__A1
*484 ANTENNA__291__B1
*485 ANTENNA__291__B2
*486 ANTENNA__292__A1
*487 ANTENNA__292__A2
*488 ANTENNA__293__A1
*489 ANTENNA__293__A2
*490 ANTENNA__293__A3
*491 ANTENNA__294__I
*492 ANTENNA__295__I
*493 ANTENNA__296__A1
*494 ANTENNA__296__A2
*495 ANTENNA__296__A3
*496 ANTENNA__296__A4
*497 ANTENNA__297__A1
*498 ANTENNA__297__A2
*499 ANTENNA__297__A3
*500 ANTENNA__298__A1
*501 ANTENNA__298__A2
*502 ANTENNA__298__A3
*503 ANTENNA__298__A4
*504 ANTENNA__299__A1
*505 ANTENNA__299__A2
*506 ANTENNA__299__B
*507 ANTENNA__300__A1
*508 ANTENNA__301__A1
*509 ANTENNA__303__A1
*510 ANTENNA__303__A2
*511 ANTENNA__304__A1
*512 ANTENNA__304__A2
*513 ANTENNA__304__A3
*514 ANTENNA__304__B1
*515 ANTENNA__304__B2
*516 ANTENNA__305__A1
*517 ANTENNA__305__A2
*518 ANTENNA__307__A1
*519 ANTENNA__307__A2
*520 ANTENNA__308__I
*521 ANTENNA__309__A1
*522 ANTENNA__309__A2
*523 ANTENNA__309__B1
*524 ANTENNA__309__B2
*525 ANTENNA__310__A1
*526 ANTENNA__310__A2
*527 ANTENNA__311__A1
*528 ANTENNA__312__A1
*529 ANTENNA__313__A1
*530 ANTENNA__313__A3
*531 ANTENNA__313__B1
*532 ANTENNA__313__B2
*533 ANTENNA__314__I
*534 ANTENNA__315__A1
*535 ANTENNA__315__A3
*536 ANTENNA__315__A4
*537 ANTENNA__316__A1
*538 ANTENNA__316__A2
*539 ANTENNA__316__A3
*540 ANTENNA__318__A1
*541 ANTENNA__319__A1
*542 ANTENNA__319__A2
*543 ANTENNA__320__A1
*544 ANTENNA__320__A3
*545 ANTENNA__320__B2
*546 ANTENNA__321__I
*547 ANTENNA__322__A1
*548 ANTENNA__322__A2
*549 ANTENNA__324__A1
*550 ANTENNA__325__A1
*551 ANTENNA__325__A2
*552 ANTENNA__326__A1
*553 ANTENNA__326__A3
*554 ANTENNA__326__B2
*555 ANTENNA__327__A1
*556 ANTENNA__327__A2
*557 ANTENNA__328__B
*558 ANTENNA__329__A1
*559 ANTENNA__330__I
*560 ANTENNA__331__A1
*561 ANTENNA__331__A3
*562 ANTENNA__331__B2
*563 ANTENNA__332__I
*564 ANTENNA__333__A1
*565 ANTENNA__333__A2
*566 ANTENNA__333__A3
*567 ANTENNA__334__A1
*568 ANTENNA__334__A3
*569 ANTENNA__334__A4
*570 ANTENNA__335__A1
*571 ANTENNA__335__A2
*572 ANTENNA__336__A1
*573 ANTENNA__337__A1
*574 ANTENNA__337__A2
*575 ANTENNA__338__I
*576 ANTENNA__339__A1
*577 ANTENNA__339__B2
*578 ANTENNA__340__I
*579 ANTENNA__341__I
*580 ANTENNA__342__A1
*581 ANTENNA__342__A2
*582 ANTENNA__343__A1
*583 ANTENNA__343__A2
*584 ANTENNA__343__A3
*585 ANTENNA__344__A2
*586 ANTENNA__344__B
*587 ANTENNA__344__C
*588 ANTENNA__345__A1
*589 ANTENNA__345__A2
*590 ANTENNA__346__A1
*591 ANTENNA__346__B1
*592 ANTENNA__347__I
*593 ANTENNA__348__A1
*594 ANTENNA__348__A2
*595 ANTENNA__349__A1
*596 ANTENNA__349__A2
*597 ANTENNA__350__A1
*598 ANTENNA__350__B
*599 ANTENNA__351__A1
*600 ANTENNA__351__A2
*601 ANTENNA__352__A1
*602 ANTENNA__352__B1
*603 ANTENNA__352__B2
*604 ANTENNA__353__I
*605 ANTENNA__354__I
*606 ANTENNA__355__A1
*607 ANTENNA__356__A2
*608 ANTENNA__357__I
*609 ANTENNA__358__A1
*610 ANTENNA__358__B
*611 ANTENNA__359__A1
*612 ANTENNA__360__A1
*613 ANTENNA__360__A3
*614 ANTENNA__360__B2
*615 ANTENNA__361__A1
*616 ANTENNA__361__A2
*617 ANTENNA__361__B
*618 ANTENNA__362__A1
*619 ANTENNA__362__B
*620 ANTENNA__363__A1
*621 ANTENNA__364__A1
*622 ANTENNA__364__A3
*623 ANTENNA__364__B1
*624 ANTENNA__364__B2
*625 ANTENNA__365__A1
*626 ANTENNA__365__A2
*627 ANTENNA__366__A1
*628 ANTENNA__366__A2
*629 ANTENNA__366__A3
*630 ANTENNA__367__A1
*631 ANTENNA__367__A2
*632 ANTENNA__368__A1
*633 ANTENNA__370__A1
*634 ANTENNA__370__A2
*635 ANTENNA__371__A1
*636 ANTENNA__371__B1
*637 ANTENNA__371__B2
*638 ANTENNA__372__I
*639 ANTENNA__373__A1
*640 ANTENNA__373__A2
*641 ANTENNA__375__A1
*642 ANTENNA__375__B
*643 ANTENNA__376__A1
*644 ANTENNA__376__A2
*645 ANTENNA__377__A1
*646 ANTENNA__377__A3
*647 ANTENNA__377__B2
*648 ANTENNA__378__I
*649 ANTENNA__379__A1
*650 ANTENNA__380__A1
*651 ANTENNA__381__B
*652 ANTENNA__382__A1
*653 ANTENNA__383__A1
*654 ANTENNA__383__A3
*655 ANTENNA__383__B1
*656 ANTENNA__383__B2
*657 ANTENNA__384__A1
*658 ANTENNA__384__A2
*659 ANTENNA__385__B
*660 ANTENNA__386__A1
*661 ANTENNA__386__A2
*662 ANTENNA__387__A1
*663 ANTENNA__387__B2
*664 ANTENNA__388__A1
*665 ANTENNA__388__A2
*666 ANTENNA__388__A3
*667 ANTENNA__389__A1
*668 ANTENNA__390__A1
*669 ANTENNA__391__A1
*670 ANTENNA__392__A1
*671 ANTENNA__392__A2
*672 ANTENNA__393__A1
*673 ANTENNA__393__B1
*674 ANTENNA__393__B2
*675 ANTENNA__394__A1
*676 ANTENNA__395__B
*677 ANTENNA__396__A1
*678 ANTENNA__396__A2
*679 ANTENNA__397__A1
*680 ANTENNA__397__B1
*681 ANTENNA__397__B2
*682 ANTENNA__398__I
*683 ANTENNA__399__A1
*684 ANTENNA__399__A2
*685 ANTENNA__401__B
*686 ANTENNA__402__A1
*687 ANTENNA__402__A2
*688 ANTENNA__403__A1
*689 ANTENNA__403__B2
*690 ANTENNA__404__I
*691 ANTENNA__405__A2
*692 ANTENNA__406__B
*693 ANTENNA__407__A1
*694 ANTENNA__407__A2
*695 ANTENNA__408__A1
*696 ANTENNA__408__A3
*697 ANTENNA__408__B2
*698 ANTENNA__409__I
*699 ANTENNA__410__A1
*700 ANTENNA__410__A2
*701 ANTENNA__411__A1
*702 ANTENNA__411__A2
*703 ANTENNA__412__A2
*704 ANTENNA__412__A3
*705 ANTENNA__413__A1
*706 ANTENNA__413__A2
*707 ANTENNA__414__A1
*708 ANTENNA__414__A2
*709 ANTENNA__414__B1
*710 ANTENNA__414__B2
*711 ANTENNA__415__I
*712 ANTENNA__416__A1
*713 ANTENNA__417__A2
*714 ANTENNA__418__A1
*715 ANTENNA__418__B
*716 ANTENNA__419__A1
*717 ANTENNA__419__A2
*718 ANTENNA__420__A1
*719 ANTENNA__420__A3
*720 ANTENNA__420__B2
*721 ANTENNA__421__A1
*722 ANTENNA__421__A2
*723 ANTENNA__421__B
*724 ANTENNA__423__A1
*725 ANTENNA__423__B
*726 ANTENNA__424__A1
*727 ANTENNA__424__A2
*728 ANTENNA__425__I
*729 ANTENNA__426__A1
*730 ANTENNA__426__B2
*731 ANTENNA__427__I
*732 ANTENNA__428__I
*733 ANTENNA__429__I
*734 ANTENNA__430__I
*735 ANTENNA__431__I
*736 ANTENNA__432__I
*737 ANTENNA__433__I
*738 ANTENNA__434__I
*739 ANTENNA__435__I
*740 ANTENNA__436__I
*741 ANTENNA__437__I
*742 ANTENNA__438__I
*743 ANTENNA__439__I
*744 ANTENNA__440__I
*745 ANTENNA__441__I
*746 ANTENNA__442__I
*747 ANTENNA__443__I
*748 ANTENNA__444__I
*749 ANTENNA__445__I
*750 ANTENNA__446__I
*751 ANTENNA__447__I
*752 ANTENNA__448__I
*753 ANTENNA__449__I
*754 ANTENNA__450__I
*755 ANTENNA__451__I
*756 ANTENNA__452__I
*757 ANTENNA__453__I
*758 ANTENNA__454__I
*759 ANTENNA__455__I
*760 ANTENNA__456__I
*761 ANTENNA__457__I
*762 ANTENNA__458__I
*763 ANTENNA__459__I
*764 ANTENNA__460__I
*765 ANTENNA__461__I
*766 ANTENNA__462__I
*767 ANTENNA__463__I
*768 ANTENNA__464__A1
*769 ANTENNA__464__A2
*770 ANTENNA__464__A3
*771 ANTENNA__464__A4
*772 ANTENNA__465__A1
*773 ANTENNA__465__A2
*774 ANTENNA__466__A1
*775 ANTENNA__469__A1
*776 ANTENNA__469__A2
*777 ANTENNA__470__I
*778 ANTENNA__471__I
*779 ANTENNA__473__A1
*780 ANTENNA__474__I
*781 ANTENNA__475__A1
*782 ANTENNA__475__A2
*783 ANTENNA__475__A3
*784 ANTENNA__475__B1
*785 ANTENNA__476__I
*786 ANTENNA__477__I
*787 ANTENNA__478__A1
*788 ANTENNA__478__A2
*789 ANTENNA__478__A3
*790 ANTENNA__480__A1
*791 ANTENNA__481__A1
*792 ANTENNA__481__A2
*793 ANTENNA__482__I
*794 ANTENNA__483__A1
*795 ANTENNA__483__B2
*796 ANTENNA__484__I
*797 ANTENNA__485__A1
*798 ANTENNA__485__A2
*799 ANTENNA__487__B
*800 ANTENNA__488__A1
*801 ANTENNA__488__A2
*802 ANTENNA__489__A1
*803 ANTENNA__489__A3
*804 ANTENNA__489__B2
*805 ANTENNA__490__I
*806 ANTENNA__491__I
*807 ANTENNA__493__B
*808 ANTENNA__494__A1
*809 ANTENNA__495__A1
*810 ANTENNA__495__B2
*811 ANTENNA__496__A2
*812 ANTENNA__497__A1
*813 ANTENNA__497__A2
*814 ANTENNA__498__A1
*815 ANTENNA__498__A3
*816 ANTENNA__498__B2
*817 ANTENNA__499__I
*818 ANTENNA__500__I
*819 ANTENNA__501__I
*820 ANTENNA__502__I
*821 ANTENNA__503__A1
*822 ANTENNA__503__A2
*823 ANTENNA__503__A3
*824 ANTENNA__503__A4
*825 ANTENNA__504__A1
*826 ANTENNA__504__A2
*827 ANTENNA__505__A1
*828 ANTENNA__505__A2
*829 ANTENNA__505__A3
*830 ANTENNA__505__A4
*831 ANTENNA__506__CLK
*832 ANTENNA__506__D
*833 ANTENNA__507__CLK
*834 ANTENNA__507__D
*835 ANTENNA__508__CLK
*836 ANTENNA__508__D
*837 ANTENNA__508__RN
*838 ANTENNA__509__CLK
*839 ANTENNA__509__D
*840 ANTENNA__510__CLK
*841 ANTENNA__510__D
*842 ANTENNA__510__RN
*843 ANTENNA__511__CLK
*844 ANTENNA__511__D
*845 ANTENNA__511__RN
*846 ANTENNA__512__CLK
*847 ANTENNA__512__D
*848 ANTENNA__512__RN
*849 ANTENNA__513__CLK
*850 ANTENNA__513__D
*851 ANTENNA__513__RN
*852 ANTENNA__514__CLK
*853 ANTENNA__514__D
*854 ANTENNA__514__RN
*855 ANTENNA__515__CLK
*856 ANTENNA__515__D
*857 ANTENNA__515__RN
*858 ANTENNA__516__CLK
*859 ANTENNA__516__D
*860 ANTENNA__516__RN
*861 ANTENNA__517__CLK
*862 ANTENNA__517__D
*863 ANTENNA__517__RN
*864 ANTENNA__518__CLK
*865 ANTENNA__518__D
*866 ANTENNA__518__RN
*867 ANTENNA__519__CLK
*868 ANTENNA__519__D
*869 ANTENNA__519__RN
*870 ANTENNA__520__CLK
*871 ANTENNA__520__D
*872 ANTENNA__520__RN
*873 ANTENNA__521__CLK
*874 ANTENNA__521__D
*875 ANTENNA__522__CLK
*876 ANTENNA__522__D
*877 ANTENNA__522__RN
*878 ANTENNA__523__CLK
*879 ANTENNA__523__D
*880 ANTENNA__523__RN
*881 ANTENNA__524__CLK
*882 ANTENNA__524__D
*883 ANTENNA__524__RN
*884 ANTENNA__525__CLK
*885 ANTENNA__525__D
*886 ANTENNA__525__RN
*887 ANTENNA__526__CLK
*888 ANTENNA__526__D
*889 ANTENNA__527__CLK
*890 ANTENNA__527__D
*891 ANTENNA__527__RN
*892 ANTENNA__528__CLK
*893 ANTENNA__528__D
*894 ANTENNA__529__CLK
*895 ANTENNA__529__D
*896 ANTENNA__529__RN
*897 ANTENNA__530__CLK
*898 ANTENNA__530__D
*899 ANTENNA__530__RN
*900 ANTENNA__531__CLK
*901 ANTENNA__531__D
*902 ANTENNA__531__RN
*903 ANTENNA__532__CLK
*904 ANTENNA__532__D
*905 ANTENNA__532__RN
*906 ANTENNA__533__CLK
*907 ANTENNA__533__D
*908 ANTENNA__533__RN
*909 ANTENNA__534__CLK
*910 ANTENNA__534__D
*911 ANTENNA__534__RN
*912 ANTENNA__535__CLK
*913 ANTENNA__535__D
*914 ANTENNA__535__RN
*915 ANTENNA__536__CLK
*916 ANTENNA__536__D
*917 ANTENNA__536__RN
*918 ANTENNA__537__CLK
*919 ANTENNA__537__D
*920 ANTENNA__537__RN
*921 ANTENNA_clkbuf_0_wb_clk_i_I
*922 ANTENNA_clkbuf_2_0__f_wb_clk_i_I
*923 ANTENNA_clkbuf_2_1__f_wb_clk_i_I
*924 ANTENNA_clkbuf_2_2__f_wb_clk_i_I
*925 ANTENNA_clkbuf_2_3__f_wb_clk_i_I
*926 ANTENNA_input10_I
*927 ANTENNA_input11_I
*928 ANTENNA_input12_I
*929 ANTENNA_input13_I
*930 ANTENNA_input14_I
*931 ANTENNA_input15_I
*932 ANTENNA_input16_I
*933 ANTENNA_input17_I
*934 ANTENNA_input18_I
*935 ANTENNA_input19_I
*936 ANTENNA_input1_I
*937 ANTENNA_input20_I
*938 ANTENNA_input21_I
*939 ANTENNA_input22_I
*940 ANTENNA_input23_I
*941 ANTENNA_input24_I
*942 ANTENNA_input25_I
*943 ANTENNA_input26_I
*944 ANTENNA_input27_I
*945 ANTENNA_input28_I
*946 ANTENNA_input29_I
*947 ANTENNA_input2_I
*948 ANTENNA_input30_I
*949 ANTENNA_input31_I
*950 ANTENNA_input32_I
*951 ANTENNA_input33_I
*952 ANTENNA_input34_I
*953 ANTENNA_input35_I
*954 ANTENNA_input36_I
*955 ANTENNA_input3_I
*956 ANTENNA_input4_I
*957 ANTENNA_input5_I
*958 ANTENNA_input6_I
*959 ANTENNA_input7_I
*960 ANTENNA_input8_I
*961 ANTENNA_input9_I
*962 ANTENNA_output37_I
*963 ANTENNA_output38_I
*964 ANTENNA_output39_I
*965 ANTENNA_output40_I
*966 ANTENNA_output41_I
*967 ANTENNA_output42_I
*968 ANTENNA_output43_I
*969 ANTENNA_output44_I
*970 ANTENNA_output45_I
*971 ANTENNA_output46_I
*972 ANTENNA_output47_I
*973 ANTENNA_output48_I
*974 ANTENNA_output49_I
*975 ANTENNA_output50_I
*976 ANTENNA_output51_I
*977 ANTENNA_output52_I
*978 ANTENNA_output53_I
*979 ANTENNA_output54_I
*980 ANTENNA_output55_I
*981 ANTENNA_output56_I
*982 ANTENNA_output57_I
*983 ANTENNA_output58_I
*984 ANTENNA_output59_I
*985 ANTENNA_output60_I
*986 ANTENNA_output61_I
*987 ANTENNA_output62_I
*988 ANTENNA_output63_I
*989 ANTENNA_output64_I
*990 ANTENNA_output65_I
*991 ANTENNA_output66_I
*992 ANTENNA_output67_I
*993 ANTENNA_output68_I
*994 FILLER_0_10
*995 FILLER_0_103
*996 FILLER_0_107
*997 FILLER_0_115
*998 FILLER_0_119
*999 FILLER_0_12
*1000 FILLER_0_135
*1001 FILLER_0_139
*1002 FILLER_0_142
*1003 FILLER_0_144
*1004 FILLER_0_159
*1005 FILLER_0_167
*1006 FILLER_0_171
*1007 FILLER_0_174
*1008 FILLER_0_177
*1009 FILLER_0_184
*1010 FILLER_0_192
*1011 FILLER_0_194
*1012 FILLER_0_197
*1013 FILLER_0_2
*1014 FILLER_0_205
*1015 FILLER_0_209
*1016 FILLER_0_212
*1017 FILLER_0_228
*1018 FILLER_0_233
*1019 FILLER_0_241
*1020 FILLER_0_247
*1021 FILLER_0_251
*1022 FILLER_0_259
*1023 FILLER_0_27
*1024 FILLER_0_275
*1025 FILLER_0_279
*1026 FILLER_0_282
*1027 FILLER_0_297
*1028 FILLER_0_299
*1029 FILLER_0_31
*1030 FILLER_0_314
*1031 FILLER_0_317
*1032 FILLER_0_34
*1033 FILLER_0_349
*1034 FILLER_0_352
*1035 FILLER_0_356
*1036 FILLER_0_359
*1037 FILLER_0_367
*1038 FILLER_0_37
*1039 FILLER_0_375
*1040 FILLER_0_379
*1041 FILLER_0_381
*1042 FILLER_0_384
*1043 FILLER_0_387
*1044 FILLER_0_402
*1045 FILLER_0_410
*1046 FILLER_0_414
*1047 FILLER_0_416
*1048 FILLER_0_419
*1049 FILLER_0_422
*1050 FILLER_0_429
*1051 FILLER_0_433
*1052 FILLER_0_437
*1053 FILLER_0_44
*1054 FILLER_0_445
*1055 FILLER_0_453
*1056 FILLER_0_457
*1057 FILLER_0_473
*1058 FILLER_0_481
*1059 FILLER_0_485
*1060 FILLER_0_489
*1061 FILLER_0_492
*1062 FILLER_0_507
*1063 FILLER_0_60
*1064 FILLER_0_68
*1065 FILLER_0_72
*1066 FILLER_0_87
*1067 FILLER_0_95
*1068 FILLER_10_101
*1069 FILLER_10_105
*1070 FILLER_10_108
*1071 FILLER_10_172
*1072 FILLER_10_176
*1073 FILLER_10_179
*1074 FILLER_10_2
*1075 FILLER_10_243
*1076 FILLER_10_247
*1077 FILLER_10_250
*1078 FILLER_10_314
*1079 FILLER_10_318
*1080 FILLER_10_321
*1081 FILLER_10_34
*1082 FILLER_10_37
*1083 FILLER_10_385
*1084 FILLER_10_389
*1085 FILLER_10_392
*1086 FILLER_10_456
*1087 FILLER_10_460
*1088 FILLER_10_463
*1089 FILLER_10_479
*1090 FILLER_10_487
*1091 FILLER_10_489
*1092 FILLER_10_492
*1093 FILLER_10_508
*1094 FILLER_11_137
*1095 FILLER_11_141
*1096 FILLER_11_144
*1097 FILLER_11_17
*1098 FILLER_11_2
*1099 FILLER_11_208
*1100 FILLER_11_21
*1101 FILLER_11_212
*1102 FILLER_11_215
*1103 FILLER_11_279
*1104 FILLER_11_283
*1105 FILLER_11_286
*1106 FILLER_11_350
*1107 FILLER_11_354
*1108 FILLER_11_357
*1109 FILLER_11_421
*1110 FILLER_11_425
*1111 FILLER_11_428
*1112 FILLER_11_492
*1113 FILLER_11_496
*1114 FILLER_11_499
*1115 FILLER_11_507
*1116 FILLER_11_53
*1117 FILLER_11_69
*1118 FILLER_11_73
*1119 FILLER_12_101
*1120 FILLER_12_105
*1121 FILLER_12_108
*1122 FILLER_12_172
*1123 FILLER_12_176
*1124 FILLER_12_179
*1125 FILLER_12_2
*1126 FILLER_12_243
*1127 FILLER_12_247
*1128 FILLER_12_250
*1129 FILLER_12_314
*1130 FILLER_12_318
*1131 FILLER_12_321
*1132 FILLER_12_34
*1133 FILLER_12_37
*1134 FILLER_12_385
*1135 FILLER_12_389
*1136 FILLER_12_392
*1137 FILLER_12_456
*1138 FILLER_12_460
*1139 FILLER_12_463
*1140 FILLER_12_495
*1141 FILLER_12_503
*1142 FILLER_12_507
*1143 FILLER_13_137
*1144 FILLER_13_141
*1145 FILLER_13_144
*1146 FILLER_13_2
*1147 FILLER_13_208
*1148 FILLER_13_212
*1149 FILLER_13_215
*1150 FILLER_13_279
*1151 FILLER_13_283
*1152 FILLER_13_286
*1153 FILLER_13_350
*1154 FILLER_13_354
*1155 FILLER_13_357
*1156 FILLER_13_421
*1157 FILLER_13_425
*1158 FILLER_13_428
*1159 FILLER_13_492
*1160 FILLER_13_496
*1161 FILLER_13_499
*1162 FILLER_13_507
*1163 FILLER_13_66
*1164 FILLER_13_70
*1165 FILLER_13_73
*1166 FILLER_14_101
*1167 FILLER_14_105
*1168 FILLER_14_108
*1169 FILLER_14_172
*1170 FILLER_14_176
*1171 FILLER_14_179
*1172 FILLER_14_2
*1173 FILLER_14_21
*1174 FILLER_14_243
*1175 FILLER_14_247
*1176 FILLER_14_250
*1177 FILLER_14_29
*1178 FILLER_14_314
*1179 FILLER_14_318
*1180 FILLER_14_321
*1181 FILLER_14_33
*1182 FILLER_14_37
*1183 FILLER_14_385
*1184 FILLER_14_389
*1185 FILLER_14_392
*1186 FILLER_14_456
*1187 FILLER_14_460
*1188 FILLER_14_463
*1189 FILLER_14_479
*1190 FILLER_14_487
*1191 FILLER_14_489
*1192 FILLER_14_492
*1193 FILLER_14_5
*1194 FILLER_14_508
*1195 FILLER_15_137
*1196 FILLER_15_141
*1197 FILLER_15_144
*1198 FILLER_15_2
*1199 FILLER_15_208
*1200 FILLER_15_212
*1201 FILLER_15_215
*1202 FILLER_15_279
*1203 FILLER_15_283
*1204 FILLER_15_286
*1205 FILLER_15_350
*1206 FILLER_15_354
*1207 FILLER_15_357
*1208 FILLER_15_41
*1209 FILLER_15_421
*1210 FILLER_15_425
*1211 FILLER_15_428
*1212 FILLER_15_492
*1213 FILLER_15_496
*1214 FILLER_15_499
*1215 FILLER_15_507
*1216 FILLER_15_57
*1217 FILLER_15_65
*1218 FILLER_15_69
*1219 FILLER_15_73
*1220 FILLER_15_9
*1221 FILLER_16_101
*1222 FILLER_16_105
*1223 FILLER_16_108
*1224 FILLER_16_172
*1225 FILLER_16_176
*1226 FILLER_16_179
*1227 FILLER_16_2
*1228 FILLER_16_243
*1229 FILLER_16_247
*1230 FILLER_16_250
*1231 FILLER_16_314
*1232 FILLER_16_318
*1233 FILLER_16_321
*1234 FILLER_16_34
*1235 FILLER_16_37
*1236 FILLER_16_385
*1237 FILLER_16_389
*1238 FILLER_16_392
*1239 FILLER_16_456
*1240 FILLER_16_460
*1241 FILLER_16_463
*1242 FILLER_16_495
*1243 FILLER_16_503
*1244 FILLER_16_507
*1245 FILLER_17_137
*1246 FILLER_17_141
*1247 FILLER_17_144
*1248 FILLER_17_2
*1249 FILLER_17_208
*1250 FILLER_17_212
*1251 FILLER_17_215
*1252 FILLER_17_279
*1253 FILLER_17_283
*1254 FILLER_17_286
*1255 FILLER_17_350
*1256 FILLER_17_354
*1257 FILLER_17_357
*1258 FILLER_17_421
*1259 FILLER_17_425
*1260 FILLER_17_428
*1261 FILLER_17_492
*1262 FILLER_17_496
*1263 FILLER_17_499
*1264 FILLER_17_5
*1265 FILLER_17_507
*1266 FILLER_17_69
*1267 FILLER_17_73
*1268 FILLER_18_101
*1269 FILLER_18_105
*1270 FILLER_18_108
*1271 FILLER_18_172
*1272 FILLER_18_176
*1273 FILLER_18_179
*1274 FILLER_18_2
*1275 FILLER_18_243
*1276 FILLER_18_247
*1277 FILLER_18_25
*1278 FILLER_18_250
*1279 FILLER_18_314
*1280 FILLER_18_318
*1281 FILLER_18_321
*1282 FILLER_18_33
*1283 FILLER_18_37
*1284 FILLER_18_385
*1285 FILLER_18_389
*1286 FILLER_18_392
*1287 FILLER_18_456
*1288 FILLER_18_460
*1289 FILLER_18_463
*1290 FILLER_18_495
*1291 FILLER_18_497
*1292 FILLER_18_500
*1293 FILLER_18_508
*1294 FILLER_18_9
*1295 FILLER_19_137
*1296 FILLER_19_141
*1297 FILLER_19_144
*1298 FILLER_19_2
*1299 FILLER_19_208
*1300 FILLER_19_212
*1301 FILLER_19_215
*1302 FILLER_19_279
*1303 FILLER_19_283
*1304 FILLER_19_286
*1305 FILLER_19_350
*1306 FILLER_19_354
*1307 FILLER_19_357
*1308 FILLER_19_421
*1309 FILLER_19_425
*1310 FILLER_19_428
*1311 FILLER_19_492
*1312 FILLER_19_496
*1313 FILLER_19_499
*1314 FILLER_19_507
*1315 FILLER_19_66
*1316 FILLER_19_70
*1317 FILLER_19_73
*1318 FILLER_1_121
*1319 FILLER_1_129
*1320 FILLER_1_133
*1321 FILLER_1_137
*1322 FILLER_1_141
*1323 FILLER_1_144
*1324 FILLER_1_17
*1325 FILLER_1_2
*1326 FILLER_1_208
*1327 FILLER_1_21
*1328 FILLER_1_212
*1329 FILLER_1_215
*1330 FILLER_1_25
*1331 FILLER_1_279
*1332 FILLER_1_283
*1333 FILLER_1_286
*1334 FILLER_1_29
*1335 FILLER_1_294
*1336 FILLER_1_300
*1337 FILLER_1_332
*1338 FILLER_1_348
*1339 FILLER_1_352
*1340 FILLER_1_354
*1341 FILLER_1_357
*1342 FILLER_1_421
*1343 FILLER_1_425
*1344 FILLER_1_428
*1345 FILLER_1_492
*1346 FILLER_1_496
*1347 FILLER_1_499
*1348 FILLER_1_501
*1349 FILLER_1_508
*1350 FILLER_1_61
*1351 FILLER_1_69
*1352 FILLER_1_73
*1353 FILLER_1_81
*1354 FILLER_1_85
*1355 FILLER_1_89
*1356 FILLER_20_101
*1357 FILLER_20_105
*1358 FILLER_20_108
*1359 FILLER_20_172
*1360 FILLER_20_176
*1361 FILLER_20_179
*1362 FILLER_20_2
*1363 FILLER_20_243
*1364 FILLER_20_247
*1365 FILLER_20_250
*1366 FILLER_20_314
*1367 FILLER_20_318
*1368 FILLER_20_321
*1369 FILLER_20_34
*1370 FILLER_20_37
*1371 FILLER_20_385
*1372 FILLER_20_389
*1373 FILLER_20_392
*1374 FILLER_20_456
*1375 FILLER_20_460
*1376 FILLER_20_463
*1377 FILLER_20_495
*1378 FILLER_20_503
*1379 FILLER_20_507
*1380 FILLER_21_137
*1381 FILLER_21_141
*1382 FILLER_21_144
*1383 FILLER_21_2
*1384 FILLER_21_208
*1385 FILLER_21_212
*1386 FILLER_21_215
*1387 FILLER_21_279
*1388 FILLER_21_283
*1389 FILLER_21_286
*1390 FILLER_21_350
*1391 FILLER_21_354
*1392 FILLER_21_357
*1393 FILLER_21_421
*1394 FILLER_21_425
*1395 FILLER_21_428
*1396 FILLER_21_492
*1397 FILLER_21_496
*1398 FILLER_21_499
*1399 FILLER_21_507
*1400 FILLER_21_66
*1401 FILLER_21_70
*1402 FILLER_21_73
*1403 FILLER_22_101
*1404 FILLER_22_105
*1405 FILLER_22_108
*1406 FILLER_22_172
*1407 FILLER_22_176
*1408 FILLER_22_179
*1409 FILLER_22_18
*1410 FILLER_22_2
*1411 FILLER_22_243
*1412 FILLER_22_247
*1413 FILLER_22_250
*1414 FILLER_22_28
*1415 FILLER_22_314
*1416 FILLER_22_318
*1417 FILLER_22_32
*1418 FILLER_22_321
*1419 FILLER_22_34
*1420 FILLER_22_37
*1421 FILLER_22_385
*1422 FILLER_22_389
*1423 FILLER_22_392
*1424 FILLER_22_456
*1425 FILLER_22_460
*1426 FILLER_22_463
*1427 FILLER_22_495
*1428 FILLER_22_497
*1429 FILLER_22_500
*1430 FILLER_22_508
*1431 FILLER_23_123
*1432 FILLER_23_139
*1433 FILLER_23_141
*1434 FILLER_23_144
*1435 FILLER_23_17
*1436 FILLER_23_2
*1437 FILLER_23_208
*1438 FILLER_23_21
*1439 FILLER_23_212
*1440 FILLER_23_215
*1441 FILLER_23_279
*1442 FILLER_23_283
*1443 FILLER_23_286
*1444 FILLER_23_350
*1445 FILLER_23_354
*1446 FILLER_23_357
*1447 FILLER_23_421
*1448 FILLER_23_425
*1449 FILLER_23_428
*1450 FILLER_23_492
*1451 FILLER_23_496
*1452 FILLER_23_499
*1453 FILLER_23_507
*1454 FILLER_23_53
*1455 FILLER_23_69
*1456 FILLER_23_73
*1457 FILLER_23_91
*1458 FILLER_24_103
*1459 FILLER_24_105
*1460 FILLER_24_108
*1461 FILLER_24_172
*1462 FILLER_24_176
*1463 FILLER_24_179
*1464 FILLER_24_2
*1465 FILLER_24_243
*1466 FILLER_24_247
*1467 FILLER_24_250
*1468 FILLER_24_314
*1469 FILLER_24_318
*1470 FILLER_24_321
*1471 FILLER_24_34
*1472 FILLER_24_37
*1473 FILLER_24_385
*1474 FILLER_24_389
*1475 FILLER_24_392
*1476 FILLER_24_456
*1477 FILLER_24_460
*1478 FILLER_24_463
*1479 FILLER_24_495
*1480 FILLER_24_503
*1481 FILLER_24_505
*1482 FILLER_24_508
*1483 FILLER_24_69
*1484 FILLER_24_71
*1485 FILLER_24_74
*1486 FILLER_24_89
*1487 FILLER_24_95
*1488 FILLER_24_99
*1489 FILLER_25_126
*1490 FILLER_25_134
*1491 FILLER_25_138
*1492 FILLER_25_141
*1493 FILLER_25_144
*1494 FILLER_25_153
*1495 FILLER_25_157
*1496 FILLER_25_161
*1497 FILLER_25_179
*1498 FILLER_25_183
*1499 FILLER_25_196
*1500 FILLER_25_2
*1501 FILLER_25_200
*1502 FILLER_25_208
*1503 FILLER_25_212
*1504 FILLER_25_215
*1505 FILLER_25_279
*1506 FILLER_25_283
*1507 FILLER_25_286
*1508 FILLER_25_350
*1509 FILLER_25_354
*1510 FILLER_25_357
*1511 FILLER_25_421
*1512 FILLER_25_425
*1513 FILLER_25_428
*1514 FILLER_25_492
*1515 FILLER_25_496
*1516 FILLER_25_499
*1517 FILLER_25_501
*1518 FILLER_25_508
*1519 FILLER_25_66
*1520 FILLER_25_70
*1521 FILLER_25_73
*1522 FILLER_25_86
*1523 FILLER_25_90
*1524 FILLER_25_94
*1525 FILLER_26_101
*1526 FILLER_26_105
*1527 FILLER_26_108
*1528 FILLER_26_148
*1529 FILLER_26_152
*1530 FILLER_26_156
*1531 FILLER_26_17
*1532 FILLER_26_172
*1533 FILLER_26_176
*1534 FILLER_26_179
*1535 FILLER_26_183
*1536 FILLER_26_187
*1537 FILLER_26_2
*1538 FILLER_26_21
*1539 FILLER_26_221
*1540 FILLER_26_225
*1541 FILLER_26_241
*1542 FILLER_26_245
*1543 FILLER_26_247
*1544 FILLER_26_250
*1545 FILLER_26_29
*1546 FILLER_26_314
*1547 FILLER_26_318
*1548 FILLER_26_321
*1549 FILLER_26_33
*1550 FILLER_26_37
*1551 FILLER_26_385
*1552 FILLER_26_389
*1553 FILLER_26_392
*1554 FILLER_26_456
*1555 FILLER_26_460
*1556 FILLER_26_463
*1557 FILLER_26_495
*1558 FILLER_26_503
*1559 FILLER_26_507
*1560 FILLER_27_131
*1561 FILLER_27_139
*1562 FILLER_27_141
*1563 FILLER_27_144
*1564 FILLER_27_160
*1565 FILLER_27_166
*1566 FILLER_27_184
*1567 FILLER_27_190
*1568 FILLER_27_194
*1569 FILLER_27_197
*1570 FILLER_27_2
*1571 FILLER_27_201
*1572 FILLER_27_210
*1573 FILLER_27_212
*1574 FILLER_27_215
*1575 FILLER_27_223
*1576 FILLER_27_227
*1577 FILLER_27_230
*1578 FILLER_27_234
*1579 FILLER_27_238
*1580 FILLER_27_247
*1581 FILLER_27_279
*1582 FILLER_27_283
*1583 FILLER_27_286
*1584 FILLER_27_350
*1585 FILLER_27_354
*1586 FILLER_27_357
*1587 FILLER_27_421
*1588 FILLER_27_425
*1589 FILLER_27_428
*1590 FILLER_27_492
*1591 FILLER_27_496
*1592 FILLER_27_499
*1593 FILLER_27_507
*1594 FILLER_27_66
*1595 FILLER_27_70
*1596 FILLER_27_73
*1597 FILLER_27_77
*1598 FILLER_27_81
*1599 FILLER_27_83
*1600 FILLER_27_91
*1601 FILLER_27_95
*1602 FILLER_27_99
*1603 FILLER_28_101
*1604 FILLER_28_105
*1605 FILLER_28_108
*1606 FILLER_28_172
*1607 FILLER_28_176